(PID.TID 0000.0001) 
(PID.TID 0000.0001) // ======================================================
(PID.TID 0000.0001) //                      MITgcm UV
(PID.TID 0000.0001) //                      =========
(PID.TID 0000.0001) // ======================================================
(PID.TID 0000.0001) // execution environment starting up...
(PID.TID 0000.0001) 
(PID.TID 0000.0001) // MITgcmUV version:  checkpoint58e_post
(PID.TID 0000.0001) // Build user:        mlosch
(PID.TID 0000.0001) // Build host:        eddy
(PID.TID 0000.0001) // Build date:        Mon Jun  5 09:03:22 EDT 2006
(PID.TID 0000.0001) 
(PID.TID 0000.0001) // =======================================================
(PID.TID 0000.0001) // Execution Environment parameter file "eedata"
(PID.TID 0000.0001) // =======================================================
(PID.TID 0000.0001) ># Example "eedata" file
(PID.TID 0000.0001) ># Lines beginning "#" are comments
(PID.TID 0000.0001) ># nTx - No. threads per process in X
(PID.TID 0000.0001) ># nTy - No. threads per process in Y
(PID.TID 0000.0001) > &EEPARMS
(PID.TID 0000.0001) > &
(PID.TID 0000.0001) ># Note: Some systems use & as the
(PID.TID 0000.0001) ># namelist terminator. Other systems
(PID.TID 0000.0001) ># use a / character (as shown here).
(PID.TID 0000.0001) 
(PID.TID 0000.0001) // =======================================================
(PID.TID 0000.0001) // Computational Grid Specification ( see files "SIZE.h" )
(PID.TID 0000.0001) //                                  ( and "eedata"       )
(PID.TID 0000.0001) // =======================================================
(PID.TID 0000.0001)      nPx =    1 ; /* No. processes in X */
(PID.TID 0000.0001)      nPy =    1 ; /* No. processes in Y */
(PID.TID 0000.0001)      nSx =    1 ; /* No. tiles in X per process */
(PID.TID 0000.0001)      nSy =    1 ; /* No. tiles in Y per process */
(PID.TID 0000.0001)      sNx =    5 ; /* Tile size in X */
(PID.TID 0000.0001)      sNy =    5 ; /* Tile size in Y */
(PID.TID 0000.0001)      OLx =    2 ; /* Tile overlap distance in X */
(PID.TID 0000.0001)      OLy =    2 ; /* Tile overlap distance in Y */
(PID.TID 0000.0001)      nTx =    1 ; /* No. threads in X per process */
(PID.TID 0000.0001)      nTy =    1 ; /* No. threads in Y per process */
(PID.TID 0000.0001)       Nr =    4 ; /* No. levels in the vertical   */
(PID.TID 0000.0001)       nX =    5 ; /* Total domain size in X ( = nPx*nSx*sNx ) */
(PID.TID 0000.0001)       nY =    5 ; /* Total domain size in Y ( = nPy*nSy*sNy ) */
(PID.TID 0000.0001)   nTiles =    1 ; /* Total no. tiles per process ( = nSx*nSy ) */
(PID.TID 0000.0001)   nProcs =    1 ; /* Total no. processes ( = nPx*nPy ) */
(PID.TID 0000.0001) nThreads =    1 ; /* Total no. threads per process ( = nTx*nTy ) */
(PID.TID 0000.0001) usingMPI =    F ; /* Flag used to control whether MPI is in use */
(PID.TID 0000.0001)                   /*  note: To execute a program with MPI calls */
(PID.TID 0000.0001)                   /*  it must be launched appropriately e.g     */
(PID.TID 0000.0001)                   /*  "mpirun -np 64 ......"                    */
(PID.TID 0000.0001) useCoupler=   F ; /* Flag used to control communications with */
(PID.TID 0000.0001)                   /*  other model components, through a coupler */
(PID.TID 0000.0001) 
(PID.TID 0000.0001) // ======================================================
(PID.TID 0000.0001) // Mapping of tiles to threads
(PID.TID 0000.0001) // ======================================================
(PID.TID 0000.0001) // -o- Thread   1, tiles (   1:   1,   1:   1)
(PID.TID 0000.0001) 
(PID.TID 0000.0001) // ======================================================
(PID.TID 0000.0001) // Tile <-> Tile connectvity table
(PID.TID 0000.0001) // ======================================================
(PID.TID 0000.0001) // Tile number: 000001 (process no. = 000001)
(PID.TID 0000.0001) //        WEST: Tile = 000001, Process = 000001, Comm = put
(PID.TID 0000.0001) //                bi = 000001, bj = 000001
(PID.TID 0000.0001) //        EAST: Tile = 000001, Process = 000001, Comm = put
(PID.TID 0000.0001) //                bi = 000001, bj = 000001
(PID.TID 0000.0001) //       SOUTH: Tile = 000001, Process = 000001, Comm = put
(PID.TID 0000.0001) //                bi = 000001, bj = 000001
(PID.TID 0000.0001) //       NORTH: Tile = 000001, Process = 000001, Comm = put
(PID.TID 0000.0001) //                bi = 000001, bj = 000001
(PID.TID 0000.0001) 
(PID.TID 0000.0001) // =======================================================
(PID.TID 0000.0001) // Model parameter file "data"
(PID.TID 0000.0001) // =======================================================
(PID.TID 0000.0001) ># Model parameters
(PID.TID 0000.0001) ># Continuous equation parameters
(PID.TID 0000.0001) > &PARM01
(PID.TID 0000.0001) > tRef=4.,4.,4.,4.,
(PID.TID 0000.0001) > sRef=35.,35.,35.,35.,
(PID.TID 0000.0001) > viscAz=1.E-1,
(PID.TID 0000.0001) > viscAh=1.E5,
(PID.TID 0000.0001) ># viscA4=1.E16,
(PID.TID 0000.0001) ># useJamartWetPoints=.TRUE.,
(PID.TID 0000.0001) > no_slip_sides=.FALSE.,
(PID.TID 0000.0001) > no_slip_bottom=.TRUE.,
(PID.TID 0000.0001) > diffKhT=4.E2,
(PID.TID 0000.0001) > diffKzT=1.E-4,
(PID.TID 0000.0001) > diffKhS=0.0,
(PID.TID 0000.0001) > diffKzS=3.E-5,
(PID.TID 0000.0001) > f0=-1.1914E-04,
(PID.TID 0000.0001) > beta=1.3094E-11,
(PID.TID 0000.0001) > tAlpha=2.E-4,
(PID.TID 0000.0001) ># sBeta =7.4E-4,
(PID.TID 0000.0001) > sBeta = 0.,
(PID.TID 0000.0001) > gravity=9.81,
(PID.TID 0000.0001) > gBaro=9.81,
(PID.TID 0000.0001) > rigidLid=.FALSE.,
(PID.TID 0000.0001) > implicitFreeSurface=.TRUE.,
(PID.TID 0000.0001) > eosType='LINEAR',
(PID.TID 0000.0001) > writeStatePrec=64,
(PID.TID 0000.0001) > writeBinaryPrec=64,
(PID.TID 0000.0001) > readBinaryPrec=64,
(PID.TID 0000.0001) > hFacMin=.05,
(PID.TID 0000.0001) > smoothAbsFuncRange = -1.e-2,
(PID.TID 0000.0001) >#momAdvection = .false.,
(PID.TID 0000.0001) >#momViscosity = .false.,
(PID.TID 0000.0001) >#momPressureForcing = .false.,
(PID.TID 0000.0001) > &
(PID.TID 0000.0001) >
(PID.TID 0000.0001) >
(PID.TID 0000.0001) ># Elliptic solver parameters
(PID.TID 0000.0001) > &PARM02
(PID.TID 0000.0001) > cg2dMaxIters=100,
(PID.TID 0000.0001) > cg2dTargetResidual=1.E-13,
(PID.TID 0000.0001) > &
(PID.TID 0000.0001) ># Time stepping parameters
(PID.TID 0000.0001) > &PARM03
(PID.TID 0000.0001) > niter0=0,
(PID.TID 0000.0001) > ntimesteps=100,
(PID.TID 0000.0001) >#startTime = 0.,
(PID.TID 0000.0001) >#endTime = 7776000,
(PID.TID 0000.0001) > deltaTmom=3600.0,
(PID.TID 0000.0001) > deltaTtracer=3600.0,
(PID.TID 0000.0001) > abEps=0.1,
(PID.TID 0000.0001) > pChkptFreq= 7776000.0,
(PID.TID 0000.0001) > chkptFreq=  0.0,
(PID.TID 0000.0001) >#dumpFreq=   1.0,
(PID.TID 0000.0001) > monitorFreq=1.0,
(PID.TID 0000.0001) > &
(PID.TID 0000.0001) ># Gridding parameters
(PID.TID 0000.0001) > &PARM04
(PID.TID 0000.0001) > usingCartesianGrid=.TRUE.,
(PID.TID 0000.0001) > usingSphericalPolarGrid=.FALSE.,
(PID.TID 0000.0001) > delX=5*200E3,
(PID.TID 0000.0001) > delY=5*200E3,
(PID.TID 0000.0001) >#delZ=1000.,5000.,500.,5000.,
(PID.TID 0000.0001) >#delZ=1000.,1500.,1500.,1500.,
(PID.TID 0000.0001) > delZ=100.,400.,500.,5000.,
(PID.TID 0000.0001) ># this is the only configuration that works so far
(PID.TID 0000.0001) >#delZ=5001.,500.,500.,500.,
(PID.TID 0000.0001) > &
(PID.TID 0000.0001) > &PARM05
(PID.TID 0000.0001) >#bathyFile='topog.box',
(PID.TID 0000.0001) > bathyFile='walls.bigRidge',
(PID.TID 0000.0001) >#bathyFile='noWalls.bigRidge',
(PID.TID 0000.0001) >#bathyFile='box.bigRidge',
(PID.TID 0000.0001) >#bathyFile='meridchannel.bigRidge',
(PID.TID 0000.0001) > hydrogThetaFile=,
(PID.TID 0000.0001) > hydrogSaltFile=,
(PID.TID 0000.0001) > zonalWindFile='windx.sin_y',
(PID.TID 0000.0001) > meridWindFile=,
(PID.TID 0000.0001) > surfQFile=,
(PID.TID 0000.0001) > EmPmRFile=,
(PID.TID 0000.0001) > &
(PID.TID 0000.0001) 
(PID.TID 0000.0001) S/R INI_PARMS ; starts to read PARM01
(PID.TID 0000.0001) S/R INI_PARMS ; read PARM01 : OK
(PID.TID 0000.0001) S/R INI_PARMS ; starts to read PARM02
(PID.TID 0000.0001) S/R INI_PARMS ; read PARM02 : OK
(PID.TID 0000.0001) S/R INI_PARMS ; starts to read PARM03
(PID.TID 0000.0001) S/R INI_PARMS ; read PARM03 : OK
(PID.TID 0000.0001) S/R INI_PARMS ; starts to read PARM04
(PID.TID 0000.0001) S/R INI_PARMS ; read PARM04 : OK
(PID.TID 0000.0001) S/R INI_PARMS ; starts to read PARM05
(PID.TID 0000.0001) S/R INI_PARMS ; read PARM05 : OK
(PID.TID 0000.0001)  PACKAGES_BOOT: opening data.pkg
(PID.TID 0000.0001)  OPEN_COPY_DATA_FILE: opening file data.pkg
(PID.TID 0000.0001) // =======================================================
(PID.TID 0000.0001) // Parameter file "data.pkg"
(PID.TID 0000.0001) // =======================================================
(PID.TID 0000.0001) >#
(PID.TID 0000.0001) ># ********
(PID.TID 0000.0001) ># Packages
(PID.TID 0000.0001) ># ********
(PID.TID 0000.0001) > &PACKAGES
(PID.TID 0000.0001) > useGMRedi    = .FALSE.,
(PID.TID 0000.0001) > useKPP       = .FALSE.,
(PID.TID 0000.0001) > useGrdchk    = .TRUE.,
(PID.TID 0000.0001) > useECCO      = .FALSE.,
(PID.TID 0000.0001) > &
(PID.TID 0000.0001) 
(PID.TID 0000.0001)  PACKAGES_BOOT: finished reading data.pkg
(PID.TID 0000.0001) OPTIM_READPARMS: opening data.optim
(PID.TID 0000.0001)  OPEN_COPY_DATA_FILE: opening file data.optim
(PID.TID 0000.0001) // =======================================================
(PID.TID 0000.0001) // Parameter file "data.optim"
(PID.TID 0000.0001) // =======================================================
(PID.TID 0000.0001) >#
(PID.TID 0000.0001) ># ********************************
(PID.TID 0000.0001) ># Off-line optimization parameters
(PID.TID 0000.0001) ># ********************************
(PID.TID 0000.0001) > &OPTIM
(PID.TID 0000.0001) > optimcycle=0,
(PID.TID 0000.0001) > /
(PID.TID 0000.0001) 
(PID.TID 0000.0001) OPTIM_READPARMS: finished reading data.optim
(PID.TID 0000.0001) CTRL_READPARMS: opening data.ctrl
(PID.TID 0000.0001)  OPEN_COPY_DATA_FILE: opening file data.ctrl
(PID.TID 0000.0001) // =======================================================
(PID.TID 0000.0001) // Parameter file "data.ctrl"
(PID.TID 0000.0001) // =======================================================
(PID.TID 0000.0001) >#
(PID.TID 0000.0001) >#
(PID.TID 0000.0001) ># *********************
(PID.TID 0000.0001) ># ECCO controlvariables
(PID.TID 0000.0001) ># *********************
(PID.TID 0000.0001) > &CTRL_NML
(PID.TID 0000.0001) ># xx_theta_file      = 'xx_theta',
(PID.TID 0000.0001) ># xx_salt_file       = 'xx_salt',
(PID.TID 0000.0001) ># xx_tr1_file        = 'xx_tr1',
(PID.TID 0000.0001) ># xx_hflux_file      = 'xx_hflux',
(PID.TID 0000.0001) ># xx_sflux_file      = 'xx_sflux',
(PID.TID 0000.0001) ># xx_tauu_file       = 'xx_tauu',
(PID.TID 0000.0001) ># xx_tauv_file       = 'xx_tauv',
(PID.TID 0000.0001) ># xx_sst_file        = 'xx_sst',
(PID.TID 0000.0001) ># xx_sss_file        = 'xx_sss',
(PID.TID 0000.0001) ># xx_diffkr_file     = 'xx_diffkr',
(PID.TID 0000.0001) ># xx_kapgm_file      = 'xx_kapgm',
(PID.TID 0000.0001) >#xx_hfacc_file      = 'xx_hfacc',
(PID.TID 0000.0001) > xx_depth_file      = 'xx_depth',
(PID.TID 0000.0001) > &
(PID.TID 0000.0001) >#
(PID.TID 0000.0001) ># *********************
(PID.TID 0000.0001) ># names for ctrl_pack/unpack
(PID.TID 0000.0001) ># *********************
(PID.TID 0000.0001) > &CTRL_PACKNAMES
(PID.TID 0000.0001) > yadmark  = 'ad',
(PID.TID 0000.0001) > ctrlname = 'exp0_ctrl',
(PID.TID 0000.0001) > costname = 'exp0_cost',
(PID.TID 0000.0001) > scalname = 'exp0_scal',
(PID.TID 0000.0001) > maskname = 'exp0_mask',
(PID.TID 0000.0001) > metaname = 'exp0_meta',
(PID.TID 0000.0001) > &
(PID.TID 0000.0001) >
(PID.TID 0000.0001) 
(PID.TID 0000.0001) CTRL_READPARMS: finished reading data.ctrl
(PID.TID 0000.0001) COST_READPARMS: opening data.cost
(PID.TID 0000.0001)  OPEN_COPY_DATA_FILE: opening file data.cost
(PID.TID 0000.0001) // =======================================================
(PID.TID 0000.0001) // Parameter file "data.cost"
(PID.TID 0000.0001) // =======================================================
(PID.TID 0000.0001) >#
(PID.TID 0000.0001) >#
(PID.TID 0000.0001) ># ******************
(PID.TID 0000.0001) ># ECCO cost function
(PID.TID 0000.0001) ># ******************
(PID.TID 0000.0001) > &COST_NML
(PID.TID 0000.0001) > mult_tracer  = 0.,
(PID.TID 0000.0001) > mult_test    = 1.,
(PID.TID 0000.0001) > mult_depth   = 1.,
(PID.TID 0000.0001) > &
(PID.TID 0000.0001) 
(PID.TID 0000.0001) COST_READPARMS: finished reading data.cost
(PID.TID 0000.0001) GRDCHK_READPARMS: opening data.grdchk
(PID.TID 0000.0001)  OPEN_COPY_DATA_FILE: opening file data.grdchk
(PID.TID 0000.0001) // =======================================================
(PID.TID 0000.0001) // Parameter file "data.grdchk"
(PID.TID 0000.0001) // =======================================================
(PID.TID 0000.0001) >
(PID.TID 0000.0001) ># *******************
(PID.TID 0000.0001) ># ECCO gradient check
(PID.TID 0000.0001) ># *******************
(PID.TID 0000.0001) > &GRDCHK_NML
(PID.TID 0000.0001) > grdchk_eps       = 1.d-04,
(PID.TID 0000.0001) > nbeg             = 1,
(PID.TID 0000.0001) > nstep            = 1,
(PID.TID 0000.0001) > nend             = 25,
(PID.TID 0000.0001) > grdchkvarindex   = 20,
(PID.TID 0000.0001) > /
(PID.TID 0000.0001) 
(PID.TID 0000.0001) GRDCHK_READPARMS: finished reading data.grdchk
(PID.TID 0000.0001) 
(PID.TID 0000.0001) // =======================================================
(PID.TID 0000.0001) // Gradient check configuration  >>> START <<<
(PID.TID 0000.0001) // =======================================================
(PID.TID 0000.0001) 
(PID.TID 0000.0001)   eps:                              0.100E-03
(PID.TID 0000.0001)   First location:                           1
(PID.TID 0000.0001)   Last location:                           25
(PID.TID 0000.0001)   Increment:                                1
(PID.TID 0000.0001) 
(PID.TID 0000.0001) // =======================================================
(PID.TID 0000.0001) // Gradient check configuration  >>> END <<<
(PID.TID 0000.0001) // =======================================================
(PID.TID 0000.0001) 
(PID.TID 0000.0001) SET_PARMS: done
(PID.TID 0000.0001) %MON XC_max                       =   9.0000000000000E+05
(PID.TID 0000.0001) %MON XC_min                       =   1.0000000000000E+05
(PID.TID 0000.0001) %MON XC_mean                      =   5.0000000000000E+05
(PID.TID 0000.0001) %MON XC_sd                        =   2.8284271247462E+05
(PID.TID 0000.0001) %MON XG_max                       =   8.0000000000000E+05
(PID.TID 0000.0001) %MON XG_min                       =   2.0000000000000E+05
(PID.TID 0000.0001) %MON XG_mean                      =   5.0000000000000E+05
(PID.TID 0000.0001) %MON XG_sd                        =   2.2360679774998E+05
(PID.TID 0000.0001) %MON DXC_max                      =   2.0000000000000E+05
(PID.TID 0000.0001) %MON DXC_min                      =   2.0000000000000E+05
(PID.TID 0000.0001) %MON DXC_mean                     =   2.0000000000000E+05
(PID.TID 0000.0001) %MON DXC_sd                       =   0.0000000000000E+00
(PID.TID 0000.0001) %MON DXF_max                      =   2.0000000000000E+05
(PID.TID 0000.0001) %MON DXF_min                      =   2.0000000000000E+05
(PID.TID 0000.0001) %MON DXF_mean                     =   2.0000000000000E+05
(PID.TID 0000.0001) %MON DXF_sd                       =   0.0000000000000E+00
(PID.TID 0000.0001) %MON DXG_max                      =   2.0000000000000E+05
(PID.TID 0000.0001) %MON DXG_min                      =   2.0000000000000E+05
(PID.TID 0000.0001) %MON DXG_mean                     =   2.0000000000000E+05
(PID.TID 0000.0001) %MON DXG_sd                       =   0.0000000000000E+00
(PID.TID 0000.0001) %MON DXV_max                      =   2.0000000000000E+05
(PID.TID 0000.0001) %MON DXV_min                      =   2.0000000000000E+05
(PID.TID 0000.0001) %MON DXV_mean                     =   2.0000000000000E+05
(PID.TID 0000.0001) %MON DXV_sd                       =   0.0000000000000E+00
(PID.TID 0000.0001) %MON YC_max                       =   9.0000000000000E+05
(PID.TID 0000.0001) %MON YC_min                       =   1.0000000000000E+05
(PID.TID 0000.0001) %MON YC_mean                      =   5.0000000000000E+05
(PID.TID 0000.0001) %MON YC_sd                        =   2.8284271247462E+05
(PID.TID 0000.0001) %MON YG_max                       =   8.0000000000000E+05
(PID.TID 0000.0001) %MON YG_min                       =   2.0000000000000E+05
(PID.TID 0000.0001) %MON YG_mean                      =   5.0000000000000E+05
(PID.TID 0000.0001) %MON YG_sd                        =   2.2360679774998E+05
(PID.TID 0000.0001) %MON DYC_max                      =   2.0000000000000E+05
(PID.TID 0000.0001) %MON DYC_min                      =   2.0000000000000E+05
(PID.TID 0000.0001) %MON DYC_mean                     =   2.0000000000000E+05
(PID.TID 0000.0001) %MON DYC_sd                       =   0.0000000000000E+00
(PID.TID 0000.0001) %MON DYF_max                      =   2.0000000000000E+05
(PID.TID 0000.0001) %MON DYF_min                      =   2.0000000000000E+05
(PID.TID 0000.0001) %MON DYF_mean                     =   2.0000000000000E+05
(PID.TID 0000.0001) %MON DYF_sd                       =   0.0000000000000E+00
(PID.TID 0000.0001) %MON DYG_max                      =   2.0000000000000E+05
(PID.TID 0000.0001) %MON DYG_min                      =   2.0000000000000E+05
(PID.TID 0000.0001) %MON DYG_mean                     =   2.0000000000000E+05
(PID.TID 0000.0001) %MON DYG_sd                       =   0.0000000000000E+00
(PID.TID 0000.0001) %MON DYU_max                      =   2.0000000000000E+05
(PID.TID 0000.0001) %MON DYU_min                      =   2.0000000000000E+05
(PID.TID 0000.0001) %MON DYU_mean                     =   2.0000000000000E+05
(PID.TID 0000.0001) %MON DYU_sd                       =   0.0000000000000E+00
(PID.TID 0000.0001) %MON RA_max                       =   4.0000000000000E+10
(PID.TID 0000.0001) %MON RA_min                       =   4.0000000000000E+10
(PID.TID 0000.0001) %MON RA_mean                      =   4.0000000000000E+10
(PID.TID 0000.0001) %MON RA_sd                        =   0.0000000000000E+00
(PID.TID 0000.0001) %MON RAW_max                      =   4.0000000000000E+10
(PID.TID 0000.0001) %MON RAW_min                      =   4.0000000000000E+10
(PID.TID 0000.0001) %MON RAW_mean                     =   4.0000000000000E+10
(PID.TID 0000.0001) %MON RAW_sd                       =   0.0000000000000E+00
(PID.TID 0000.0001) %MON RAS_max                      =   4.0000000000000E+10
(PID.TID 0000.0001) %MON RAS_min                      =   4.0000000000000E+10
(PID.TID 0000.0001) %MON RAS_mean                     =   4.0000000000000E+10
(PID.TID 0000.0001) %MON RAS_sd                       =   0.0000000000000E+00
(PID.TID 0000.0001) %MON RAZ_max                      =   4.0000000000000E+10
(PID.TID 0000.0001) %MON RAZ_min                      =   4.0000000000000E+10
(PID.TID 0000.0001) %MON RAZ_mean                     =   4.0000000000000E+10
(PID.TID 0000.0001) %MON RAZ_sd                       =   0.0000000000000E+00
(PID.TID 0000.0001) %MON AngleCS_max                  =   1.0000000000000E+00
(PID.TID 0000.0001) %MON AngleCS_min                  =   1.0000000000000E+00
(PID.TID 0000.0001) %MON AngleCS_mean                 =   1.0000000000000E+00
(PID.TID 0000.0001) %MON AngleCS_sd                   =   0.0000000000000E+00
(PID.TID 0000.0001) %MON AngleSN_max                  =   0.0000000000000E+00
(PID.TID 0000.0001) %MON AngleSN_min                  =   0.0000000000000E+00
(PID.TID 0000.0001) %MON AngleSN_mean                 =   0.0000000000000E+00
(PID.TID 0000.0001) %MON AngleSN_sd                   =   0.0000000000000E+00
(PID.TID 0000.0001)  MDSREADFIELD: opening global file: walls.bigRidge
(PID.TID 0000.0001) // =======================================================
(PID.TID 0000.0001) // Field Bottom depths (ini_depths) at iteration          1
(PID.TID 0000.0001) // CMIN =         -5.000000000000000E+03
(PID.TID 0000.0001) // CMAX =         -2.000000000000000E+03
(PID.TID 0000.0001) // CINT =          1.111111111111111E+02
(PID.TID 0000.0001) // SYMBOLS (CMIN->CMAX): -abcdefghijklmnopqrstuvwxyz+
(PID.TID 0000.0001) //                  0.0: .
(PID.TID 0000.0001) // RANGE I (Lo:Hi:Step):(  -1:   7:   1)
(PID.TID 0000.0001) // RANGE J (Lo:Hi:Step):(   7:  -1:  -1)
(PID.TID 0000.0001) // RANGE K (Lo:Hi:Step):(   1:   1:   1)
(PID.TID 0000.0001) // =======================================================
(PID.TID 0000.0001) K =   1
(PID.TID 0000.0001) //
(PID.TID 0000.0001) // |--J--|*01234567
(PID.TID 0000.0001) //      7 ----+----
(PID.TID 0000.0001) //      6 .........
(PID.TID 0000.0001) //      5 ----+----
(PID.TID 0000.0001) //      4 ----+----
(PID.TID 0000.0001) //      3 ----+----
(PID.TID 0000.0001) //      2 ----+----
(PID.TID 0000.0001) //      1 .........
(PID.TID 0000.0001) //      0 ----+----
(PID.TID 0000.0001) //     -1 ----+----
(PID.TID 0000.0001) // =======================================================
(PID.TID 0000.0001) // END OF FIELD                                          =
(PID.TID 0000.0001) // =======================================================
(PID.TID 0000.0001) 
(PID.TID 0000.0001) // =======================================================
(PID.TID 0000.0001) // Field Model R_low (ini_masks_etc) at iteration          1
(PID.TID 0000.0001) // CMIN =         -5.000000000000000E+03
(PID.TID 0000.0001) // CMAX =         -2.000000000000000E+03
(PID.TID 0000.0001) // CINT =          1.111111111111111E+02
(PID.TID 0000.0001) // SYMBOLS (CMIN->CMAX): -abcdefghijklmnopqrstuvwxyz+
(PID.TID 0000.0001) //                  0.0: .
(PID.TID 0000.0001) // RANGE I (Lo:Hi:Step):(  -1:   7:   1)
(PID.TID 0000.0001) // RANGE J (Lo:Hi:Step):(   7:  -1:  -1)
(PID.TID 0000.0001) // RANGE K (Lo:Hi:Step):(   1:   1:   1)
(PID.TID 0000.0001) // =======================================================
(PID.TID 0000.0001) K =   1
(PID.TID 0000.0001) //
(PID.TID 0000.0001) // |--J--|*01234567
(PID.TID 0000.0001) //      7 ----+----
(PID.TID 0000.0001) //      6 .........
(PID.TID 0000.0001) //      5 ----+----
(PID.TID 0000.0001) //      4 ----+----
(PID.TID 0000.0001) //      3 ----+----
(PID.TID 0000.0001) //      2 ----+----
(PID.TID 0000.0001) //      1 .........
(PID.TID 0000.0001) //      0 ----+----
(PID.TID 0000.0001) //     -1 ----+----
(PID.TID 0000.0001) // =======================================================
(PID.TID 0000.0001) // END OF FIELD                                          =
(PID.TID 0000.0001) // =======================================================
(PID.TID 0000.0001) 
(PID.TID 0000.0001) // =======================================================
(PID.TID 0000.0001) // Field Model Ro_surf (ini_masks_etc) at iteration          1
(PID.TID 0000.0001) // CMIN =          2.273736754432321E-13
(PID.TID 0000.0001) // CMAX =          2.273736754432321E-13
(PID.TID 0000.0001) // CINT =          0.000000000000000E+00
(PID.TID 0000.0001) // SYMBOLS (CMIN->CMAX): -abcdefghijklmnopqrstuvwxyz+
(PID.TID 0000.0001) //                  0.0: .
(PID.TID 0000.0001) // RANGE I (Lo:Hi:Step):(  -1:   7:   1)
(PID.TID 0000.0001) // RANGE J (Lo:Hi:Step):(   7:  -1:  -1)
(PID.TID 0000.0001) // RANGE K (Lo:Hi:Step):(   1:   1:   1)
(PID.TID 0000.0001) // =======================================================
(PID.TID 0000.0001) // =======================================================
(PID.TID 0000.0001) // END OF FIELD                                          =
(PID.TID 0000.0001) // =======================================================
(PID.TID 0000.0001) 
(PID.TID 0000.0001) // =======================================================
(PID.TID 0000.0001) // Field hFacC at iteration          1
(PID.TID 0000.0001) // CMIN =          1.000000000000000E+00
(PID.TID 0000.0001) // CMAX =          1.000000000000000E+00
(PID.TID 0000.0001) // CINT =          0.000000000000000E+00
(PID.TID 0000.0001) // SYMBOLS (CMIN->CMAX): -abcdefghijklmnopqrstuvwxyz+
(PID.TID 0000.0001) //                  0.0: .
(PID.TID 0000.0001) // RANGE I (Lo:Hi:Step):(  -1:   7:   1)
(PID.TID 0000.0001) // RANGE J (Lo:Hi:Step):(   7:  -1:  -1)
(PID.TID 0000.0001) // RANGE K (Lo:Hi:Step):(   1:   1:   1)
(PID.TID 0000.0001) // =======================================================
(PID.TID 0000.0001) // =======================================================
(PID.TID 0000.0001) // END OF FIELD                                          =
(PID.TID 0000.0001) // =======================================================
(PID.TID 0000.0001) 
(PID.TID 0000.0001) // =======================================================
(PID.TID 0000.0001) // Field hFacW at iteration          1
(PID.TID 0000.0001) // CMIN =          1.000000000000000E+00
(PID.TID 0000.0001) // CMAX =          1.000000000000000E+00
(PID.TID 0000.0001) // CINT =          0.000000000000000E+00
(PID.TID 0000.0001) // SYMBOLS (CMIN->CMAX): -abcdefghijklmnopqrstuvwxyz+
(PID.TID 0000.0001) //                  0.0: .
(PID.TID 0000.0001) // RANGE I (Lo:Hi:Step):(  -1:   7:   1)
(PID.TID 0000.0001) // RANGE J (Lo:Hi:Step):(   7:  -1:  -1)
(PID.TID 0000.0001) // RANGE K (Lo:Hi:Step):(   1:   1:   1)
(PID.TID 0000.0001) // =======================================================
(PID.TID 0000.0001) // =======================================================
(PID.TID 0000.0001) // END OF FIELD                                          =
(PID.TID 0000.0001) // =======================================================
(PID.TID 0000.0001) 
(PID.TID 0000.0001) // =======================================================
(PID.TID 0000.0001) // Field hFacS at iteration          1
(PID.TID 0000.0001) // CMIN =          1.000000000000000E+00
(PID.TID 0000.0001) // CMAX =          1.000000000000000E+00
(PID.TID 0000.0001) // CINT =          0.000000000000000E+00
(PID.TID 0000.0001) // SYMBOLS (CMIN->CMAX): -abcdefghijklmnopqrstuvwxyz+
(PID.TID 0000.0001) //                  0.0: .
(PID.TID 0000.0001) // RANGE I (Lo:Hi:Step):(  -1:   7:   1)
(PID.TID 0000.0001) // RANGE J (Lo:Hi:Step):(   7:  -1:  -1)
(PID.TID 0000.0001) // RANGE K (Lo:Hi:Step):(   1:   1:   1)
(PID.TID 0000.0001) // =======================================================
(PID.TID 0000.0001) // =======================================================
(PID.TID 0000.0001) // END OF FIELD                                          =
(PID.TID 0000.0001) // =======================================================
(PID.TID 0000.0001) 
(PID.TID 0000.0001) 
(PID.TID 0000.0001) // ===================================
(PID.TID 0000.0001) // GAD parameters :
(PID.TID 0000.0001) // ===================================
(PID.TID 0000.0001) tempAdvScheme =   /* Temp. Horiz.Advection scheme selector */
(PID.TID 0000.0001)                       2
(PID.TID 0000.0001)     ;
(PID.TID 0000.0001) tempVertAdvScheme =   /* Temp. Vert. Advection scheme selector */
(PID.TID 0000.0001)                       2
(PID.TID 0000.0001)     ;
(PID.TID 0000.0001) tempMultiDimAdvec =   /* use Muti-Dim Advec method for Temp */
(PID.TID 0000.0001)                   F
(PID.TID 0000.0001)     ;
(PID.TID 0000.0001) AdamsBashforthGt =   /* apply Adams-Bashforth extrapolation on Gt */
(PID.TID 0000.0001)                   T
(PID.TID 0000.0001)     ;
(PID.TID 0000.0001) AdamsBashforth_T =   /* apply Adams-Bashforth extrapolation on Temp */
(PID.TID 0000.0001)                   F
(PID.TID 0000.0001)     ;
(PID.TID 0000.0001) saltAdvScheme =   /* Salt. Horiz.advection scheme selector */
(PID.TID 0000.0001)                       2
(PID.TID 0000.0001)     ;
(PID.TID 0000.0001) saltVertAdvScheme =   /* Salt. Vert. Advection scheme selector */
(PID.TID 0000.0001)                       2
(PID.TID 0000.0001)     ;
(PID.TID 0000.0001) saltMultiDimAdvec =   /* use Muti-Dim Advec method for Salt */
(PID.TID 0000.0001)                   F
(PID.TID 0000.0001)     ;
(PID.TID 0000.0001) AdamsBashforthGs =   /* apply Adams-Bashforth extrapolation on Gs */
(PID.TID 0000.0001)                   T
(PID.TID 0000.0001)     ;
(PID.TID 0000.0001) AdamsBashforth_S =   /* apply Adams-Bashforth extrapolation on Salt */
(PID.TID 0000.0001)                   F
(PID.TID 0000.0001)     ;
(PID.TID 0000.0001) // ===================================
(PID.TID 0000.0001) ctrl-wet 1:    nvarlength =           20
(PID.TID 0000.0001) ctrl-wet 2: surface wet C =           20
(PID.TID 0000.0001) ctrl-wet 3: surface wet W =           20
(PID.TID 0000.0001) ctrl-wet 4: surface wet S =           15
(PID.TID 0000.0001) ctrl-wet 4a:surface wet V =            0
(PID.TID 0000.0001) ctrl-wet 5: 3D wet points =           80
(PID.TID 0000.0001) ctrl-wet 6: no recs for i =     1           0
(PID.TID 0000.0001) ctrl-wet 6: no recs for i =     2           0
(PID.TID 0000.0001) ctrl-wet 6: no recs for i =     3           0
(PID.TID 0000.0001) ctrl-wet 6: no recs for i =     4           0
(PID.TID 0000.0001) ctrl-wet 6: no recs for i =     5           0
(PID.TID 0000.0001) ctrl-wet 6: no recs for i =     6           0
(PID.TID 0000.0001) ctrl-wet 6: no recs for i =     7           0
(PID.TID 0000.0001) ctrl-wet 6: no recs for i =     8           0
(PID.TID 0000.0001) ctrl-wet 6: no recs for i =     9           0
(PID.TID 0000.0001) ctrl-wet 6: no recs for i =    10           0
(PID.TID 0000.0001) ctrl-wet 6: no recs for i =    11           0
(PID.TID 0000.0001) ctrl-wet 6: no recs for i =    12           0
(PID.TID 0000.0001) ctrl-wet 6: no recs for i =    13           0
(PID.TID 0000.0001) ctrl-wet 6: no recs for i =    14           0
(PID.TID 0000.0001) ctrl-wet 6: no recs for i =    15           0
(PID.TID 0000.0001) ctrl-wet 6: no recs for i =    16           0
(PID.TID 0000.0001) ctrl-wet 6: no recs for i =    17           0
(PID.TID 0000.0001) ctrl-wet 6: no recs for i =    18           0
(PID.TID 0000.0001) ctrl-wet 6: no recs for i =    19           0
(PID.TID 0000.0001) ctrl-wet 6: no recs for i =    20           1
(PID.TID 0000.0001) ctrl-wet 6: no recs for i =    21           0
(PID.TID 0000.0001) ctrl-wet 6: no recs for i =    22           0
(PID.TID 0000.0001) ctrl-wet 6: no recs for i =    23           0
(PID.TID 0000.0001) ctrl-wet 6: no recs for i =    24           0
(PID.TID 0000.0001) ctrl-wet 6: no recs for i =    25           0
(PID.TID 0000.0001) ctrl-wet 6: no recs for i =    26           0
(PID.TID 0000.0001) ctrl-wet 6: no recs for i =    27           0
(PID.TID 0000.0001) ctrl-wet 6: no recs for i =    28           0
(PID.TID 0000.0001) ctrl-wet 6: no recs for i =    29           0
(PID.TID 0000.0001) ctrl-wet 6: no recs for i =    30           0
(PID.TID 0000.0001) ctrl-wet 6: no recs for i =    31           0
(PID.TID 0000.0001) ctrl-wet 6: no recs for i =    32           0
(PID.TID 0000.0001) ctrl-wet 6: no recs for i =    33           0
(PID.TID 0000.0001) ctrl-wet 6: no recs for i =    34           0
(PID.TID 0000.0001) ctrl-wet 6: no recs for i =    35           0
(PID.TID 0000.0001) ctrl-wet 6: no recs for i =    36           0
(PID.TID 0000.0001) ctrl-wet 6: no recs for i =    37           0
(PID.TID 0000.0001) ctrl-wet 6: no recs for i =    38           0
(PID.TID 0000.0001) ctrl-wet 6: no recs for i =    39           0
(PID.TID 0000.0001) ctrl-wet 6: no recs for i =    40           0
(PID.TID 0000.0001) ctrl-wet 7: flux           160
(PID.TID 0000.0001) ctrl-wet 8: atmos          160
(PID.TID 0000.0001) ctrl-wet 13: global nvarlength vor k=    5          20
(PID.TID 0000.0001) ctrl_init: no. of control variables:            1
(PID.TID 0000.0001) ctrl_init: control vector length:              20
(PID.TID 0000.0001) CTRL_CHECK: ctrl package
(PID.TID 0000.0001) COST_CHECK: cost package
(PID.TID 0000.0001) CTRL_CHECK: ctrl package
(PID.TID 0000.0001) %MON fCori_max                    =  -1.0735540000000E-04
(PID.TID 0000.0001) %MON fCori_min                    =  -1.1783060000000E-04
(PID.TID 0000.0001) %MON fCori_mean                   =  -1.1259300000000E-04
(PID.TID 0000.0001) %MON fCori_sd                     =   3.7035424771427E-06
(PID.TID 0000.0001) %MON fCoriG_max                   =  -1.0866480000000E-04
(PID.TID 0000.0001) %MON fCoriG_min                   =  -1.1914000000000E-04
(PID.TID 0000.0001) %MON fCoriG_mean                  =  -1.1390240000000E-04
(PID.TID 0000.0001) %MON fCoriG_sd                    =   3.7035424771427E-06
(PID.TID 0000.0001) %MON fCoriCos_max                 =   0.0000000000000E+00
(PID.TID 0000.0001) %MON fCoriCos_min                 =   0.0000000000000E+00
(PID.TID 0000.0001) %MON fCoriCos_mean                =   0.0000000000000E+00
(PID.TID 0000.0001) %MON fCoriCos_sd                  =   0.0000000000000E+00
(PID.TID 0000.0001) INI_CG2D: CG2D normalisation factor =  1.9999999999999996E-04
(PID.TID 0000.0001) 
(PID.TID 0000.0001) CONFIG_CHECK: OK
(PID.TID 0000.0001) // =======================================================
(PID.TID 0000.0001) // Model configuration
(PID.TID 0000.0001) // =======================================================
(PID.TID 0000.0001) //
(PID.TID 0000.0001) // "Physical" paramters ( PARM01 in namelist )
(PID.TID 0000.0001) //
(PID.TID 0000.0001) buoyancyRelation = OCEANIC
(PID.TID 0000.0001) fluidIsAir  =  /* fluid major constituent is Air */
(PID.TID 0000.0001)                   F
(PID.TID 0000.0001)     ;
(PID.TID 0000.0001) fluidIsWater=  /* fuild major constituent is Water */
(PID.TID 0000.0001)                   T
(PID.TID 0000.0001)     ;
(PID.TID 0000.0001) usingPCoords =  /* use p (or p*) vertical coordinate */
(PID.TID 0000.0001)                   F
(PID.TID 0000.0001)     ;
(PID.TID 0000.0001) usingZCoords =  /* use z (or z*) vertical coordinate */
(PID.TID 0000.0001)                   T
(PID.TID 0000.0001)     ;
(PID.TID 0000.0001) tRef =   /* Reference temperature profile ( oC or K ) */
(PID.TID 0000.0001)     4 @  4.000000000000000E+00              /* K =  1:  4 */
(PID.TID 0000.0001)     ;
(PID.TID 0000.0001) sRef =   /* Reference salinity profile ( psu ) */
(PID.TID 0000.0001)     4 @  3.500000000000000E+01              /* K =  1:  4 */
(PID.TID 0000.0001)     ;
(PID.TID 0000.0001) viscAh =   /* Lateral eddy viscosity ( m^2/s ) */
(PID.TID 0000.0001)                 1.000000000000000E+05
(PID.TID 0000.0001)     ;
(PID.TID 0000.0001) viscAhMax =   /* Maximum lateral eddy viscosity ( m^2/s ) */
(PID.TID 0000.0001)                 1.000000000000000E+21
(PID.TID 0000.0001)     ;
(PID.TID 0000.0001) viscAhGrid =   /* Grid dependent lateral eddy viscosity ( non-dim. ) */
(PID.TID 0000.0001)                 0.000000000000000E+00
(PID.TID 0000.0001)     ;
(PID.TID 0000.0001) useFullLeith =   /* Use Full Form of Leith Viscosity on/off flag*/
(PID.TID 0000.0001)                   F
(PID.TID 0000.0001)     ;
(PID.TID 0000.0001) useStrainTensionVisc =   /* Use StrainTension Form of Viscous Operator on/off flag*/
(PID.TID 0000.0001)                   F
(PID.TID 0000.0001)     ;
(PID.TID 0000.0001) useAreaViscLength =   /* Use area for visc length instead of geom. mean*/
(PID.TID 0000.0001)                   F
(PID.TID 0000.0001)     ;
(PID.TID 0000.0001) viscC2leith = /* Leith harmonic visc. factor (on grad(vort),non-dim.) */
(PID.TID 0000.0001)                 0.000000000000000E+00
(PID.TID 0000.0001)     ;
(PID.TID 0000.0001) viscC2leithD = /* Leith harmonic viscosity factor (on grad(div),non-dim.) */
(PID.TID 0000.0001)                 0.000000000000000E+00
(PID.TID 0000.0001)     ;
(PID.TID 0000.0001) viscC2smag =   /* Smagorinsky harmonic viscosity factor (non-dim.) */
(PID.TID 0000.0001)                 0.000000000000000E+00
(PID.TID 0000.0001)     ;
(PID.TID 0000.0001) viscA4 =   /* Lateral biharmonic viscosity ( m^4/s ) */
(PID.TID 0000.0001)                 0.000000000000000E+00
(PID.TID 0000.0001)     ;
(PID.TID 0000.0001) viscA4Max =   /* Maximum biharmonic viscosity ( m^2/s ) */
(PID.TID 0000.0001)                 1.000000000000000E+21
(PID.TID 0000.0001)     ;
(PID.TID 0000.0001) viscA4Grid =   /* Grid dependent biharmonic viscosity ( non-dim. ) */
(PID.TID 0000.0001)                 0.000000000000000E+00
(PID.TID 0000.0001)     ;
(PID.TID 0000.0001) viscC4leith = /* Leith biharm viscosity factor (on grad(vort), non-dim.) */
(PID.TID 0000.0001)                 0.000000000000000E+00
(PID.TID 0000.0001)     ;
(PID.TID 0000.0001) viscC4leithD = /* Leith biharm viscosity factor (on grad(div), non-dim.) */
(PID.TID 0000.0001)                 0.000000000000000E+00
(PID.TID 0000.0001)     ;
(PID.TID 0000.0001) viscC4Smag = /* Smagorinsky biharm viscosity factor (non-dim) */
(PID.TID 0000.0001)                 0.000000000000000E+00
(PID.TID 0000.0001)     ;
(PID.TID 0000.0001) no_slip_sides =  /* Viscous BCs: No-slip sides */
(PID.TID 0000.0001)                   F
(PID.TID 0000.0001)     ;
(PID.TID 0000.0001) sideDragFactor = /* side-drag scaling factor (non-dim) */
(PID.TID 0000.0001)                 2.000000000000000E+00
(PID.TID 0000.0001)     ;
(PID.TID 0000.0001) viscAr =   /* Vertical eddy viscosity ( units of r^2/s ) */
(PID.TID 0000.0001)                 1.000000000000000E-01
(PID.TID 0000.0001)     ;
(PID.TID 0000.0001) no_slip_bottom =  /* Viscous BCs: No-slip bottom */
(PID.TID 0000.0001)                   T
(PID.TID 0000.0001)     ;
(PID.TID 0000.0001) bottomDragLinear = /* linear bottom-drag coefficient ( 1/s ) */
(PID.TID 0000.0001)                 0.000000000000000E+00
(PID.TID 0000.0001)     ;
(PID.TID 0000.0001) bottomDragQuadratic = /* quadratic bottom-drag coeff. ( 1/m ) */
(PID.TID 0000.0001)                 0.000000000000000E+00
(PID.TID 0000.0001)     ;
(PID.TID 0000.0001) diffKhT =   /* Laplacian diffusion of heat laterally ( m^2/s ) */
(PID.TID 0000.0001)                 4.000000000000000E+02
(PID.TID 0000.0001)     ;
(PID.TID 0000.0001) diffK4T =   /* Bihaarmonic diffusion of heat laterally ( m^4/s ) */
(PID.TID 0000.0001)                 0.000000000000000E+00
(PID.TID 0000.0001)     ;
(PID.TID 0000.0001) diffKhS =   /* Laplacian diffusion of salt laterally ( m^2/s ) */
(PID.TID 0000.0001)                 0.000000000000000E+00
(PID.TID 0000.0001)     ;
(PID.TID 0000.0001) diffK4S =   /* Bihaarmonic diffusion of salt laterally ( m^4/s ) */
(PID.TID 0000.0001)                 0.000000000000000E+00
(PID.TID 0000.0001)     ;
(PID.TID 0000.0001) diffKrNrT = /* vertical profile of vertical diffusion of Temp ( m^2/s )*/
(PID.TID 0000.0001)     4 @  1.000000000000000E-04              /* K =  1:  4 */
(PID.TID 0000.0001)     ;
(PID.TID 0000.0001) diffKrNrS = /* vertical profile of vertical diffusion of Salt ( m^2/s )*/
(PID.TID 0000.0001)     4 @  3.000000000000000E-05              /* K =  1:  4 */
(PID.TID 0000.0001)     ;
(PID.TID 0000.0001) diffKrBL79surf =   /* Surface diffusion for Bryan and Lewis 1979 ( m^2/s ) */
(PID.TID 0000.0001)                 0.000000000000000E+00
(PID.TID 0000.0001)     ;
(PID.TID 0000.0001) diffKrBL79deep =   /* Deep diffusion for Bryan and Lewis 1979 ( m^2/s ) */
(PID.TID 0000.0001)                 0.000000000000000E+00
(PID.TID 0000.0001)     ;
(PID.TID 0000.0001) diffKrBL79scl =   /* Depth scale for Bryan and Lewis 1979 ( m ) */
(PID.TID 0000.0001)                 2.000000000000000E+02
(PID.TID 0000.0001)     ;
(PID.TID 0000.0001) diffKrBL79Ho =   /* Turning depth for Bryan and Lewis 1979 ( m ) */
(PID.TID 0000.0001)                -2.000000000000000E+03
(PID.TID 0000.0001)     ;
(PID.TID 0000.0001) Equation of State : eosType = LINEAR ;
(PID.TID 0000.0001) tAlpha =   /* Linear EOS thermal expansion coefficient ( 1/oC ) */
(PID.TID 0000.0001)                 2.000000000000000E-04
(PID.TID 0000.0001)     ;
(PID.TID 0000.0001) sBeta =   /* Linear EOS haline contraction coefficient ( 1/psu ) */
(PID.TID 0000.0001)                 0.000000000000000E+00
(PID.TID 0000.0001)     ;
(PID.TID 0000.0001) rhonil =   /* Reference density ( kg/m^3 ) */
(PID.TID 0000.0001)                 9.998000000000000E+02
(PID.TID 0000.0001)     ;
(PID.TID 0000.0001) rhoConst =   /* Reference density ( kg/m^3 ) */
(PID.TID 0000.0001)                 9.998000000000000E+02
(PID.TID 0000.0001)     ;
(PID.TID 0000.0001) rhoConstFresh =   /* Reference density ( kg/m^3 ) */
(PID.TID 0000.0001)                 9.998000000000000E+02
(PID.TID 0000.0001)     ;
(PID.TID 0000.0001) gravity =   /* Gravitational acceleration ( m/s^2 ) */
(PID.TID 0000.0001)                 9.810000000000000E+00
(PID.TID 0000.0001)     ;
(PID.TID 0000.0001) gBaro =   /* Barotropic gravity ( m/s^2 ) */
(PID.TID 0000.0001)                 9.810000000000000E+00
(PID.TID 0000.0001)     ;
(PID.TID 0000.0001) rotationPeriod =   /* Rotation Period ( s ) */
(PID.TID 0000.0001)                 8.616400000000000E+04
(PID.TID 0000.0001)     ;
(PID.TID 0000.0001) omega =   /* Angular velocity ( rad/s ) */
(PID.TID 0000.0001)                 7.292123516990375E-05
(PID.TID 0000.0001)     ;
(PID.TID 0000.0001) f0 =   /* Reference coriolis parameter ( 1/s ) */
(PID.TID 0000.0001)                -1.191400000000000E-04
(PID.TID 0000.0001)     ;
(PID.TID 0000.0001) beta =   /* Beta ( 1/(m.s) ) */
(PID.TID 0000.0001)                 1.309400000000000E-11
(PID.TID 0000.0001)     ;
(PID.TID 0000.0001) freeSurfFac =   /* Implicit free surface factor */
(PID.TID 0000.0001)                 1.000000000000000E+00
(PID.TID 0000.0001)     ;
(PID.TID 0000.0001) implicitFreeSurface =   /* Implicit free surface on/off flag */
(PID.TID 0000.0001)                   T
(PID.TID 0000.0001)     ;
(PID.TID 0000.0001) rigidLid =   /* Rigid lid on/off flag */
(PID.TID 0000.0001)                   F
(PID.TID 0000.0001)     ;
(PID.TID 0000.0001) implicSurfPress =   /* Surface Pressure implicit factor (0-1)*/
(PID.TID 0000.0001)                 1.000000000000000E+00
(PID.TID 0000.0001)     ;
(PID.TID 0000.0001) implicDiv2Dflow =   /* Barot. Flow Div. implicit factor (0-1)*/
(PID.TID 0000.0001)                 1.000000000000000E+00
(PID.TID 0000.0001)     ;
(PID.TID 0000.0001) exactConserv =   /* Exact Volume Conservation on/off flag*/
(PID.TID 0000.0001)                   F
(PID.TID 0000.0001)     ;
(PID.TID 0000.0001) uniformLin_PhiSurf =   /* use uniform Bo_surf on/off flag*/
(PID.TID 0000.0001)                   T
(PID.TID 0000.0001)     ;
(PID.TID 0000.0001) nonlinFreeSurf =   /* Non-linear Free Surf. options (-1,0,1,2,3)*/
(PID.TID 0000.0001)                       0
(PID.TID 0000.0001)     ;
(PID.TID 0000.0001)      -1,0= Off ; 1,2,3= On, 2=+rescale gU,gV, 3=+update cg2d solv.
(PID.TID 0000.0001) hFacInf =   /* lower threshold for hFac (nonlinFreeSurf only)*/
(PID.TID 0000.0001)                 2.000000000000000E-01
(PID.TID 0000.0001)     ;
(PID.TID 0000.0001) hFacSup =   /* upper threshold for hFac (nonlinFreeSurf only)*/
(PID.TID 0000.0001)                 2.000000000000000E+00
(PID.TID 0000.0001)     ;
(PID.TID 0000.0001) select_rStar =   /* r* Coordinate options (not yet implemented)*/
(PID.TID 0000.0001)                       0
(PID.TID 0000.0001)     ;
(PID.TID 0000.0001) useRealFreshWaterFlux =   /* Real Fresh Water Flux on/off flag*/
(PID.TID 0000.0001)                   F
(PID.TID 0000.0001)     ;
(PID.TID 0000.0001) convertFW2Salt = /* convert F.W. Flux to Salt Flux (-1=use local S)(ppt)*/
(PID.TID 0000.0001)                 3.500000000000000E+01
(PID.TID 0000.0001)     ;
(PID.TID 0000.0001) use3Dsolver = /* use 3-D pressure solver on/off flag */
(PID.TID 0000.0001)                   F
(PID.TID 0000.0001)     ;
(PID.TID 0000.0001) nonHydrostatic =  /* Non-Hydrostatic on/off flag */
(PID.TID 0000.0001)                   F
(PID.TID 0000.0001)     ;
(PID.TID 0000.0001) nh_Am2 = /* Non-Hydrostatic terms scaling factor */
(PID.TID 0000.0001)                 1.000000000000000E+00
(PID.TID 0000.0001)     ;
(PID.TID 0000.0001) quasiHydrostatic = /* Quasi-Hydrostatic on/off flag */
(PID.TID 0000.0001)                   F
(PID.TID 0000.0001)     ;
(PID.TID 0000.0001) momStepping =  /* Momentum equation on/off flag */
(PID.TID 0000.0001)                   T
(PID.TID 0000.0001)     ;
(PID.TID 0000.0001) vectorInvariantMomentum= /* Vector-Invariant Momentum on/off */
(PID.TID 0000.0001)                   F
(PID.TID 0000.0001)     ;
(PID.TID 0000.0001) momAdvection =  /* Momentum advection on/off flag */
(PID.TID 0000.0001)                   T
(PID.TID 0000.0001)     ;
(PID.TID 0000.0001) momViscosity =  /* Momentum viscosity on/off flag */
(PID.TID 0000.0001)                   T
(PID.TID 0000.0001)     ;
(PID.TID 0000.0001) momImplVertAdv =/* Momentum implicit vert. advection on/off*/
(PID.TID 0000.0001)                   F
(PID.TID 0000.0001)     ;
(PID.TID 0000.0001) implicitViscosity = /* Implicit viscosity on/off flag */
(PID.TID 0000.0001)                   F
(PID.TID 0000.0001)     ;
(PID.TID 0000.0001) metricTerms =  /* metric-Terms on/off flag */
(PID.TID 0000.0001)                   F
(PID.TID 0000.0001)     ;
(PID.TID 0000.0001) useNHMTerms = /* Non-Hydrostatic Metric-Terms on/off */
(PID.TID 0000.0001)                   F
(PID.TID 0000.0001)     ;
(PID.TID 0000.0001) useCoriolis =  /* Coriolis on/off flag */
(PID.TID 0000.0001)                   T
(PID.TID 0000.0001)     ;
(PID.TID 0000.0001) useCDscheme =  /* CD scheme on/off flag */
(PID.TID 0000.0001)                   F
(PID.TID 0000.0001)     ;
(PID.TID 0000.0001) useJamartWetPoints= /* Coriolis WetPoints method flag */
(PID.TID 0000.0001)                   F
(PID.TID 0000.0001)     ;
(PID.TID 0000.0001) useJamartMomAdv= /* V.I. Non-linear terms Jamart flag */
(PID.TID 0000.0001)                   F
(PID.TID 0000.0001)     ;
(PID.TID 0000.0001) SadournyCoriolis= /* Sadourny Coriolis discr. flag */
(PID.TID 0000.0001)                   F
(PID.TID 0000.0001)     ;
(PID.TID 0000.0001) upwindVorticity= /* Upwind bias vorticity flag */
(PID.TID 0000.0001)                   F
(PID.TID 0000.0001)     ;
(PID.TID 0000.0001) useAbsVorticity= /* Work with f+zeta in Coriolis */
(PID.TID 0000.0001)                   F
(PID.TID 0000.0001)     ;
(PID.TID 0000.0001) highOrderVorticity= /* High order interp. of vort. flag */
(PID.TID 0000.0001)                   F
(PID.TID 0000.0001)     ;
(PID.TID 0000.0001) upwindShear= /* Upwind vertical Shear advection flag */
(PID.TID 0000.0001)                   F
(PID.TID 0000.0001)     ;
(PID.TID 0000.0001) selectKEscheme= /* Kinetic Energy scheme selector */
(PID.TID 0000.0001)                       0
(PID.TID 0000.0001)     ;
(PID.TID 0000.0001) momForcing =  /* Momentum forcing on/off flag */
(PID.TID 0000.0001)                   T
(PID.TID 0000.0001)     ;
(PID.TID 0000.0001) momPressureForcing =  /* Momentum pressure term on/off flag */
(PID.TID 0000.0001)                   T
(PID.TID 0000.0001)     ;
(PID.TID 0000.0001) implicitIntGravWave= /* Implicit Internal Gravity Wave flag */
(PID.TID 0000.0001)                   F
(PID.TID 0000.0001)     ;
(PID.TID 0000.0001) staggerTimeStep =   /* Stagger time stepping on/off flag */
(PID.TID 0000.0001)                   F
(PID.TID 0000.0001)     ;
(PID.TID 0000.0001) multiDimAdvection =   /* enable/disable Multi-Dim Advection */
(PID.TID 0000.0001)                   T
(PID.TID 0000.0001)     ;
(PID.TID 0000.0001) useMultiDimAdvec =   /* Multi-Dim Advection is/is-not used */
(PID.TID 0000.0001)                   F
(PID.TID 0000.0001)     ;
(PID.TID 0000.0001) implicitDiffusion =/* Implicit Diffusion on/off flag */
(PID.TID 0000.0001)                   F
(PID.TID 0000.0001)     ;
(PID.TID 0000.0001) tempStepping =  /* Temperature equation on/off flag */
(PID.TID 0000.0001)                   T
(PID.TID 0000.0001)     ;
(PID.TID 0000.0001) tempAdvection=  /* Temperature advection on/off flag */
(PID.TID 0000.0001)                   T
(PID.TID 0000.0001)     ;
(PID.TID 0000.0001) tempImplVertAdv =/* Temp. implicit vert. advection on/off */
(PID.TID 0000.0001)                   F
(PID.TID 0000.0001)     ;
(PID.TID 0000.0001) tempForcing  =  /* Temperature forcing on/off flag */
(PID.TID 0000.0001)                   T
(PID.TID 0000.0001)     ;
(PID.TID 0000.0001) saltStepping =  /* Salinity equation on/off flag */
(PID.TID 0000.0001)                   T
(PID.TID 0000.0001)     ;
(PID.TID 0000.0001) saltAdvection=  /* Salinity advection on/off flag */
(PID.TID 0000.0001)                   T
(PID.TID 0000.0001)     ;
(PID.TID 0000.0001) saltImplVertAdv =/* Sali. implicit vert. advection on/off */
(PID.TID 0000.0001)                   F
(PID.TID 0000.0001)     ;
(PID.TID 0000.0001) saltForcing  =  /* Salinity forcing on/off flag */
(PID.TID 0000.0001)                   T
(PID.TID 0000.0001)     ;
(PID.TID 0000.0001)  readBinaryPrec = /* Precision used for reading binary files */
(PID.TID 0000.0001)                      64
(PID.TID 0000.0001)     ;
(PID.TID 0000.0001) writeBinaryPrec = /* Precision used for writing binary files */
(PID.TID 0000.0001)                      64
(PID.TID 0000.0001)     ;
(PID.TID 0000.0001)  globalFiles = /* write "global" (=not per tile) files */
(PID.TID 0000.0001)                   F
(PID.TID 0000.0001)     ;
(PID.TID 0000.0001)  useSingleCpuIO = /* only master MPI process does I/O */
(PID.TID 0000.0001)                   F
(PID.TID 0000.0001)     ;
(PID.TID 0000.0001)  debugMode  =  /* Debug Mode on/off flag */
(PID.TID 0000.0001)                   F
(PID.TID 0000.0001)     ;
(PID.TID 0000.0001)    debLevA  =  /* 1rst level of debugging */
(PID.TID 0000.0001)                       1
(PID.TID 0000.0001)     ;
(PID.TID 0000.0001)    debLevB  =  /* 2nd  level of debugging */
(PID.TID 0000.0001)                       2
(PID.TID 0000.0001)     ;
(PID.TID 0000.0001)  debugLevel =  /* select debugging level */
(PID.TID 0000.0001)                       1
(PID.TID 0000.0001)     ;
(PID.TID 0000.0001) //
(PID.TID 0000.0001) // Elliptic solver(s) paramters ( PARM02 in namelist )
(PID.TID 0000.0001) //
(PID.TID 0000.0001) cg2dMaxIters =   /* Upper limit on 2d con. grad iterations  */
(PID.TID 0000.0001)                     100
(PID.TID 0000.0001)     ;
(PID.TID 0000.0001) cg2dChkResFreq =   /* 2d con. grad convergence test frequency */
(PID.TID 0000.0001)                       1
(PID.TID 0000.0001)     ;
(PID.TID 0000.0001) cg2dTargetResidual =   /* 2d con. grad target residual  */
(PID.TID 0000.0001)                 1.000000000000000E-13
(PID.TID 0000.0001)     ;
(PID.TID 0000.0001) cg2dTargetResWunit =   /* CG2d target residual [W units] */
(PID.TID 0000.0001)                -1.000000000000000E+00
(PID.TID 0000.0001)     ;
(PID.TID 0000.0001) cg2dPreCondFreq =   /* Freq. for updating cg2d preconditioner */
(PID.TID 0000.0001)                       1
(PID.TID 0000.0001)     ;
(PID.TID 0000.0001) //
(PID.TID 0000.0001) // Time stepping paramters ( PARM03 in namelist )
(PID.TID 0000.0001) //
(PID.TID 0000.0001) nIter0 =   /* Run starting timestep number  */
(PID.TID 0000.0001)                       0
(PID.TID 0000.0001)     ;
(PID.TID 0000.0001) nTimeSteps =   /* Number of timesteps */
(PID.TID 0000.0001)                     100
(PID.TID 0000.0001)     ;
(PID.TID 0000.0001) deltatTmom =   /* Momentum equation timestep ( s ) */
(PID.TID 0000.0001)                 3.600000000000000E+03
(PID.TID 0000.0001)     ;
(PID.TID 0000.0001) deltaTfreesurf =   /* FreeSurface equation timestep ( s ) */
(PID.TID 0000.0001)                 3.600000000000000E+03
(PID.TID 0000.0001)     ;
(PID.TID 0000.0001) dTtracerLev =   /* Tracer equation timestep ( s ) */
(PID.TID 0000.0001)     4 @  3.600000000000000E+03              /* K =  1:  4 */
(PID.TID 0000.0001)     ;
(PID.TID 0000.0001) deltatTClock  =   /* Model clock timestep ( s ) */
(PID.TID 0000.0001)                 3.600000000000000E+03
(PID.TID 0000.0001)     ;
(PID.TID 0000.0001) cAdjFreq =   /* Convective adjustment interval ( s ) */
(PID.TID 0000.0001)                 0.000000000000000E+00
(PID.TID 0000.0001)     ;
(PID.TID 0000.0001) momForcingOutAB = /* =1: take Momentum Forcing out of Adams-Bash. stepping */
(PID.TID 0000.0001)                       0
(PID.TID 0000.0001)     ;
(PID.TID 0000.0001) tracForcingOutAB = /* =1: take T,S,pTr Forcing out of Adams-Bash. stepping */
(PID.TID 0000.0001)                       0
(PID.TID 0000.0001)     ;
(PID.TID 0000.0001) momDissip_In_AB = /* put Dissipation Tendency in Adams-Bash. stepping */
(PID.TID 0000.0001)                   T
(PID.TID 0000.0001)     ;
(PID.TID 0000.0001) doAB_onGtGs = /* apply AB on Tendencies (rather than on T,S)*/
(PID.TID 0000.0001)                   T
(PID.TID 0000.0001)     ;
(PID.TID 0000.0001) abEps =   /* Adams-Bashforth-2 stabilizing weight */
(PID.TID 0000.0001)                 1.000000000000000E-01
(PID.TID 0000.0001)     ;
(PID.TID 0000.0001) baseTime =   /* Model base time ( s ). */
(PID.TID 0000.0001)                 0.000000000000000E+00
(PID.TID 0000.0001)     ;
(PID.TID 0000.0001) startTime =   /* Run start time ( s ). */
(PID.TID 0000.0001)                 0.000000000000000E+00
(PID.TID 0000.0001)     ;
(PID.TID 0000.0001) endTime =   /* Integration ending time ( s ). */
(PID.TID 0000.0001)                 3.600000000000000E+05
(PID.TID 0000.0001)     ;
(PID.TID 0000.0001) pChkPtFreq =   /* Permanent restart/checkpoint file interval ( s ). */
(PID.TID 0000.0001)                 7.776000000000000E+06
(PID.TID 0000.0001)     ;
(PID.TID 0000.0001) chkPtFreq =   /* Rolling restart/checkpoint file interval ( s ). */
(PID.TID 0000.0001)                 0.000000000000000E+00
(PID.TID 0000.0001)     ;
(PID.TID 0000.0001) pickup_write_mdsio =   /* Model IO flag. */
(PID.TID 0000.0001)                   T
(PID.TID 0000.0001)     ;
(PID.TID 0000.0001) pickup_read_mdsio =   /* Model IO flag. */
(PID.TID 0000.0001)                   T
(PID.TID 0000.0001)     ;
(PID.TID 0000.0001) pickup_write_mnc =   /* Model IO flag. */
(PID.TID 0000.0001)                   F
(PID.TID 0000.0001)     ;
(PID.TID 0000.0001) pickup_read_mnc =   /* Model IO flag. */
(PID.TID 0000.0001)                   F
(PID.TID 0000.0001)     ;
(PID.TID 0000.0001) pickup_write_immed =   /* Model IO flag. */
(PID.TID 0000.0001)                   F
(PID.TID 0000.0001)     ;
(PID.TID 0000.0001) dumpFreq =   /* Model state write out interval ( s ). */
(PID.TID 0000.0001)                 0.000000000000000E+00
(PID.TID 0000.0001)     ;
(PID.TID 0000.0001) dumpInitAndLast= /* write out Initial & Last iter. model state */
(PID.TID 0000.0001)                   T
(PID.TID 0000.0001)     ;
(PID.TID 0000.0001) snapshot_mdsio =   /* Model IO flag. */
(PID.TID 0000.0001)                   T
(PID.TID 0000.0001)     ;
(PID.TID 0000.0001) snapshot_mnc =   /* Model IO flag. */
(PID.TID 0000.0001)                   F
(PID.TID 0000.0001)     ;
(PID.TID 0000.0001) monitorFreq =   /* Monitor output interval ( s ). */
(PID.TID 0000.0001)                 1.000000000000000E+00
(PID.TID 0000.0001)     ;
(PID.TID 0000.0001) monitor_stdio =   /* Model IO flag. */
(PID.TID 0000.0001)                   T
(PID.TID 0000.0001)     ;
(PID.TID 0000.0001) monitor_mnc =   /* Model IO flag. */
(PID.TID 0000.0001)                   F
(PID.TID 0000.0001)     ;
(PID.TID 0000.0001) externForcingPeriod =   /* forcing period (s) */
(PID.TID 0000.0001)                 0.000000000000000E+00
(PID.TID 0000.0001)     ;
(PID.TID 0000.0001) externForcingCycle =   /* period of the cyle (s). */
(PID.TID 0000.0001)                 0.000000000000000E+00
(PID.TID 0000.0001)     ;
(PID.TID 0000.0001) tauThetaClimRelax =   /* relaxation time scale (s) */
(PID.TID 0000.0001)                 0.000000000000000E+00
(PID.TID 0000.0001)     ;
(PID.TID 0000.0001) tauSaltClimRelax =   /* relaxation time scale (s) */
(PID.TID 0000.0001)                 0.000000000000000E+00
(PID.TID 0000.0001)     ;
(PID.TID 0000.0001) latBandClimRelax =   /* max. Lat. where relaxation */
(PID.TID 0000.0001)                 3.000000000000000E+06
(PID.TID 0000.0001)     ;
(PID.TID 0000.0001) //
(PID.TID 0000.0001) // Gridding paramters ( PARM04 in namelist )
(PID.TID 0000.0001) //
(PID.TID 0000.0001) usingCartesianGrid =   /* Cartesian coordinates flag ( True / False ) */
(PID.TID 0000.0001)                   T
(PID.TID 0000.0001)     ;
(PID.TID 0000.0001) usingSphericalPolarGrid =   /* Spherical coordinates flag ( True / False ) */
(PID.TID 0000.0001)                   F
(PID.TID 0000.0001)     ;
(PID.TID 0000.0001) usingCylindricalGrid =   /* Spherical coordinates flag ( True / False ) */
(PID.TID 0000.0001)                   F
(PID.TID 0000.0001)     ;
(PID.TID 0000.0001) Ro_SeaLevel =   /* r(1) ( units of r ) */
(PID.TID 0000.0001)                 0.000000000000000E+00
(PID.TID 0000.0001)     ;
(PID.TID 0000.0001) rkSign =   /* index orientation relative to vertical coordinate */
(PID.TID 0000.0001)                -1.000000000000000E+00
(PID.TID 0000.0001)     ;
(PID.TID 0000.0001) horiVertRatio =   /* Ratio on units : Horiz - Vertical */
(PID.TID 0000.0001)                 1.000000000000000E+00
(PID.TID 0000.0001)     ;
(PID.TID 0000.0001) drC =   /* C spacing ( units of r ) */
(PID.TID 0000.0001)                 5.000000000000000E+01,      /* K =  1 */
(PID.TID 0000.0001)                 2.500000000000000E+02,      /* K =  2 */
(PID.TID 0000.0001)                 4.500000000000000E+02,      /* K =  3 */
(PID.TID 0000.0001)                 2.750000000000000E+03       /* K =  4 */
(PID.TID 0000.0001)     ;
(PID.TID 0000.0001) drF =   /* W spacing ( units of r ) */
(PID.TID 0000.0001)                 1.000000000000000E+02,      /* K =  1 */
(PID.TID 0000.0001)                 4.000000000000000E+02,      /* K =  2 */
(PID.TID 0000.0001)                 5.000000000000000E+02,      /* K =  3 */
(PID.TID 0000.0001)                 5.000000000000000E+03       /* K =  4 */
(PID.TID 0000.0001)     ;
(PID.TID 0000.0001) delX =   /* U spacing ( m - cartesian, degrees - spherical ) */
(PID.TID 0000.0001)     5 @  2.000000000000000E+05              /* I =  1:  5 */
(PID.TID 0000.0001)     ;
(PID.TID 0000.0001) delY =   /* V spacing ( m - cartesian, degrees - spherical ) */
(PID.TID 0000.0001)     5 @  2.000000000000000E+05              /* J =  1:  5 */
(PID.TID 0000.0001)     ;
(PID.TID 0000.0001) phiMin =    /* South edge (ignored - cartesian, degrees - spherical ) */
(PID.TID 0000.0001)                 0.000000000000000E+00
(PID.TID 0000.0001)     ;
(PID.TID 0000.0001) thetaMin =    /* West edge ( ignored - cartesian, degrees - spherical ) */
(PID.TID 0000.0001)                 0.000000000000000E+00
(PID.TID 0000.0001)     ;
(PID.TID 0000.0001) rSphere =    /* Radius ( ignored - cartesian, m - spherical ) */
(PID.TID 0000.0001)                 6.370000000000000E+06
(PID.TID 0000.0001)     ;
(PID.TID 0000.0001) xcoord =   /* P-point X coord ( m - cartesian, degrees - spherical ) */
(PID.TID 0000.0001)                 1.000000000000000E+05,      /* I =  1 */
(PID.TID 0000.0001)                 3.000000000000000E+05,      /* I =  2 */
(PID.TID 0000.0001)                 5.000000000000000E+05,      /* I =  3 */
(PID.TID 0000.0001)                 7.000000000000000E+05,      /* I =  4 */
(PID.TID 0000.0001)                 9.000000000000000E+05       /* I =  5 */
(PID.TID 0000.0001)     ;
(PID.TID 0000.0001) ycoord =   /* P-point Y coord ( m - cartesian, degrees - spherical ) */
(PID.TID 0000.0001)                 1.000000000000000E+05,      /* J =  1 */
(PID.TID 0000.0001)                 3.000000000000000E+05,      /* J =  2 */
(PID.TID 0000.0001)                 5.000000000000000E+05,      /* J =  3 */
(PID.TID 0000.0001)                 7.000000000000000E+05,      /* J =  4 */
(PID.TID 0000.0001)                 9.000000000000000E+05       /* J =  5 */
(PID.TID 0000.0001)     ;
(PID.TID 0000.0001) rcoord =   /* P-point R coordinate (  units of r ) */
(PID.TID 0000.0001)                -5.000000000000000E+01,      /* K =  1 */
(PID.TID 0000.0001)                -3.000000000000000E+02,      /* K =  2 */
(PID.TID 0000.0001)                -7.500000000000000E+02,      /* K =  3 */
(PID.TID 0000.0001)                -3.500000000000000E+03       /* K =  4 */
(PID.TID 0000.0001)     ;
(PID.TID 0000.0001) rF =   /* W-Interf. R coordinate (  units of r ) */
(PID.TID 0000.0001)                 0.000000000000000E+00,      /* K =  1 */
(PID.TID 0000.0001)                -1.000000000000000E+02,      /* K =  2 */
(PID.TID 0000.0001)                -5.000000000000000E+02,      /* K =  3 */
(PID.TID 0000.0001)                -1.000000000000000E+03,      /* K =  4 */
(PID.TID 0000.0001)                -6.000000000000000E+03       /* K =  5 */
(PID.TID 0000.0001)     ;
(PID.TID 0000.0001) dBdrRef = /* Vertical gradient of reference boyancy [(m/s/r)^2)] */
(PID.TID 0000.0001)     4 @  0.000000000000000E+00              /* K =  1:  4 */
(PID.TID 0000.0001)     ;
(PID.TID 0000.0001) dxF =  /* dxF(:,1,:,1) ( m - cartesian, degrees - spherical ) */
(PID.TID 0000.0001)     5 @  2.000000000000000E+05              /* I =  1:  5 */
(PID.TID 0000.0001)     ;
(PID.TID 0000.0001) dxF =  /* dxF(1,:,1,:) ( m - cartesian, degrees - spherical ) */
(PID.TID 0000.0001)     5 @  2.000000000000000E+05              /* J =  1:  5 */
(PID.TID 0000.0001)     ;
(PID.TID 0000.0001) dyF =  /* dyF(:,1,:,1) ( m - cartesian, degrees - spherical ) */
(PID.TID 0000.0001)     5 @  2.000000000000000E+05              /* I =  1:  5 */
(PID.TID 0000.0001)     ;
(PID.TID 0000.0001) dyF =  /* dyF(1,:,1,:) ( m - cartesian, degrees - spherical ) */
(PID.TID 0000.0001)     5 @  2.000000000000000E+05              /* J =  1:  5 */
(PID.TID 0000.0001)     ;
(PID.TID 0000.0001) dxG =  /* dxG(:,1,:,1) ( m - cartesian, degrees - spherical ) */
(PID.TID 0000.0001)     5 @  2.000000000000000E+05              /* I =  1:  5 */
(PID.TID 0000.0001)     ;
(PID.TID 0000.0001) dxG =  /* dxG(1,:,1,:) ( m - cartesian, degrees - spherical ) */
(PID.TID 0000.0001)     5 @  2.000000000000000E+05              /* J =  1:  5 */
(PID.TID 0000.0001)     ;
(PID.TID 0000.0001) dyG =  /* dyG(:,1,:,1) ( m - cartesian, degrees - spherical ) */
(PID.TID 0000.0001)     5 @  2.000000000000000E+05              /* I =  1:  5 */
(PID.TID 0000.0001)     ;
(PID.TID 0000.0001) dyG =  /* dyG(1,:,1,:) ( m - cartesian, degrees - spherical ) */
(PID.TID 0000.0001)     5 @  2.000000000000000E+05              /* J =  1:  5 */
(PID.TID 0000.0001)     ;
(PID.TID 0000.0001) dxC =  /* dxC(:,1,:,1) ( m - cartesian, degrees - spherical ) */
(PID.TID 0000.0001)     5 @  2.000000000000000E+05              /* I =  1:  5 */
(PID.TID 0000.0001)     ;
(PID.TID 0000.0001) dxC =  /* dxC(1,:,1,:) ( m - cartesian, degrees - spherical ) */
(PID.TID 0000.0001)     5 @  2.000000000000000E+05              /* J =  1:  5 */
(PID.TID 0000.0001)     ;
(PID.TID 0000.0001) dyC =  /* dyC(:,1,:,1) ( m - cartesian, degrees - spherical ) */
(PID.TID 0000.0001)     5 @  2.000000000000000E+05              /* I =  1:  5 */
(PID.TID 0000.0001)     ;
(PID.TID 0000.0001) dyC =  /* dyC(1,:,1,:) ( m - cartesian, degrees - spherical ) */
(PID.TID 0000.0001)     5 @  2.000000000000000E+05              /* J =  1:  5 */
(PID.TID 0000.0001)     ;
(PID.TID 0000.0001) dxV =  /* dxV(:,1,:,1) ( m - cartesian, degrees - spherical ) */
(PID.TID 0000.0001)     5 @  2.000000000000000E+05              /* I =  1:  5 */
(PID.TID 0000.0001)     ;
(PID.TID 0000.0001) dxV =  /* dxV(1,:,1,:) ( m - cartesian, degrees - spherical ) */
(PID.TID 0000.0001)     5 @  2.000000000000000E+05              /* J =  1:  5 */
(PID.TID 0000.0001)     ;
(PID.TID 0000.0001) dyU =  /* dyU(:,1,:,1) ( m - cartesian, degrees - spherical ) */
(PID.TID 0000.0001)     5 @  2.000000000000000E+05              /* I =  1:  5 */
(PID.TID 0000.0001)     ;
(PID.TID 0000.0001) dyU =  /* dyU(1,:,1,:) ( m - cartesian, degrees - spherical ) */
(PID.TID 0000.0001)     5 @  2.000000000000000E+05              /* J =  1:  5 */
(PID.TID 0000.0001)     ;
(PID.TID 0000.0001) rA =  /* rA(:,1,:,1) ( m - cartesian, degrees - spherical ) */
(PID.TID 0000.0001)     5 @  4.000000000000000E+10              /* I =  1:  5 */
(PID.TID 0000.0001)     ;
(PID.TID 0000.0001) rA =  /* rA(1,:,1,:) ( m - cartesian, degrees - spherical ) */
(PID.TID 0000.0001)     5 @  4.000000000000000E+10              /* J =  1:  5 */
(PID.TID 0000.0001)     ;
(PID.TID 0000.0001) rAw =  /* rAw(:,1,:,1) ( m - cartesian, degrees - spherical ) */
(PID.TID 0000.0001)     5 @  4.000000000000000E+10              /* I =  1:  5 */
(PID.TID 0000.0001)     ;
(PID.TID 0000.0001) rAw =  /* rAw(1,:,1,:) ( m - cartesian, degrees - spherical ) */
(PID.TID 0000.0001)     5 @  4.000000000000000E+10              /* J =  1:  5 */
(PID.TID 0000.0001)     ;
(PID.TID 0000.0001) rAs =  /* rAs(:,1,:,1) ( m - cartesian, degrees - spherical ) */
(PID.TID 0000.0001)     5 @  4.000000000000000E+10              /* I =  1:  5 */
(PID.TID 0000.0001)     ;
(PID.TID 0000.0001) rAs =  /* rAs(1,:,1,:) ( m - cartesian, degrees - spherical ) */
(PID.TID 0000.0001)     5 @  4.000000000000000E+10              /* J =  1:  5 */
(PID.TID 0000.0001)     ;
(PID.TID 0000.0001) // =======================================================
(PID.TID 0000.0001) // End of Model config. summary
(PID.TID 0000.0001) // =======================================================
(PID.TID 0000.0001) 
(PID.TID 0000.0001)  MDSREADFIELD: opening global file: walls.bigRidge
(PID.TID 0000.0001) // =======================================================
(PID.TID 0000.0001) // Field Bottom depths (ini_depths) at iteration          1
(PID.TID 0000.0001) // CMIN =         -5.000000000000000E+03
(PID.TID 0000.0001) // CMAX =         -2.000000000000000E+03
(PID.TID 0000.0001) // CINT =          1.111111111111111E+02
(PID.TID 0000.0001) // SYMBOLS (CMIN->CMAX): -abcdefghijklmnopqrstuvwxyz+
(PID.TID 0000.0001) //                  0.0: .
(PID.TID 0000.0001) // RANGE I (Lo:Hi:Step):(  -1:   7:   1)
(PID.TID 0000.0001) // RANGE J (Lo:Hi:Step):(   7:  -1:  -1)
(PID.TID 0000.0001) // RANGE K (Lo:Hi:Step):(   1:   1:   1)
(PID.TID 0000.0001) // =======================================================
(PID.TID 0000.0001) K =   1
(PID.TID 0000.0001) //
(PID.TID 0000.0001) // |--J--|*01234567
(PID.TID 0000.0001) //      7 ----+----
(PID.TID 0000.0001) //      6 .........
(PID.TID 0000.0001) //      5 ----+----
(PID.TID 0000.0001) //      4 ----+----
(PID.TID 0000.0001) //      3 ----+----
(PID.TID 0000.0001) //      2 ----+----
(PID.TID 0000.0001) //      1 .........
(PID.TID 0000.0001) //      0 ----+----
(PID.TID 0000.0001) //     -1 ----+----
(PID.TID 0000.0001) // =======================================================
(PID.TID 0000.0001) // END OF FIELD                                          =
(PID.TID 0000.0001) // =======================================================
(PID.TID 0000.0001) 
(PID.TID 0000.0001) // =======================================================
(PID.TID 0000.0001) // Field Model R_low (ini_masks_etc) at iteration          1
(PID.TID 0000.0001) // CMIN =         -5.000000000000000E+03
(PID.TID 0000.0001) // CMAX =         -2.000000000000000E+03
(PID.TID 0000.0001) // CINT =          1.111111111111111E+02
(PID.TID 0000.0001) // SYMBOLS (CMIN->CMAX): -abcdefghijklmnopqrstuvwxyz+
(PID.TID 0000.0001) //                  0.0: .
(PID.TID 0000.0001) // RANGE I (Lo:Hi:Step):(  -1:   7:   1)
(PID.TID 0000.0001) // RANGE J (Lo:Hi:Step):(   7:  -1:  -1)
(PID.TID 0000.0001) // RANGE K (Lo:Hi:Step):(   1:   1:   1)
(PID.TID 0000.0001) // =======================================================
(PID.TID 0000.0001) K =   1
(PID.TID 0000.0001) //
(PID.TID 0000.0001) // |--J--|*01234567
(PID.TID 0000.0001) //      7 ----+----
(PID.TID 0000.0001) //      6 .........
(PID.TID 0000.0001) //      5 ----+----
(PID.TID 0000.0001) //      4 ----+----
(PID.TID 0000.0001) //      3 ----+----
(PID.TID 0000.0001) //      2 ----+----
(PID.TID 0000.0001) //      1 .........
(PID.TID 0000.0001) //      0 ----+----
(PID.TID 0000.0001) //     -1 ----+----
(PID.TID 0000.0001) // =======================================================
(PID.TID 0000.0001) // END OF FIELD                                          =
(PID.TID 0000.0001) // =======================================================
(PID.TID 0000.0001) 
(PID.TID 0000.0001) // =======================================================
(PID.TID 0000.0001) // Field Model Ro_surf (ini_masks_etc) at iteration          1
(PID.TID 0000.0001) // CMIN =          2.273736754432321E-13
(PID.TID 0000.0001) // CMAX =          2.273736754432321E-13
(PID.TID 0000.0001) // CINT =          0.000000000000000E+00
(PID.TID 0000.0001) // SYMBOLS (CMIN->CMAX): -abcdefghijklmnopqrstuvwxyz+
(PID.TID 0000.0001) //                  0.0: .
(PID.TID 0000.0001) // RANGE I (Lo:Hi:Step):(  -1:   7:   1)
(PID.TID 0000.0001) // RANGE J (Lo:Hi:Step):(   7:  -1:  -1)
(PID.TID 0000.0001) // RANGE K (Lo:Hi:Step):(   1:   1:   1)
(PID.TID 0000.0001) // =======================================================
(PID.TID 0000.0001) // =======================================================
(PID.TID 0000.0001) // END OF FIELD                                          =
(PID.TID 0000.0001) // =======================================================
(PID.TID 0000.0001) 
(PID.TID 0000.0001) // =======================================================
(PID.TID 0000.0001) // Field hFacC at iteration          1
(PID.TID 0000.0001) // CMIN =          1.000000000000000E+00
(PID.TID 0000.0001) // CMAX =          1.000000000000000E+00
(PID.TID 0000.0001) // CINT =          0.000000000000000E+00
(PID.TID 0000.0001) // SYMBOLS (CMIN->CMAX): -abcdefghijklmnopqrstuvwxyz+
(PID.TID 0000.0001) //                  0.0: .
(PID.TID 0000.0001) // RANGE I (Lo:Hi:Step):(  -1:   7:   1)
(PID.TID 0000.0001) // RANGE J (Lo:Hi:Step):(   7:  -1:  -1)
(PID.TID 0000.0001) // RANGE K (Lo:Hi:Step):(   1:   1:   1)
(PID.TID 0000.0001) // =======================================================
(PID.TID 0000.0001) // =======================================================
(PID.TID 0000.0001) // END OF FIELD                                          =
(PID.TID 0000.0001) // =======================================================
(PID.TID 0000.0001) 
(PID.TID 0000.0001) // =======================================================
(PID.TID 0000.0001) // Field hFacW at iteration          1
(PID.TID 0000.0001) // CMIN =          1.000000000000000E+00
(PID.TID 0000.0001) // CMAX =          1.000000000000000E+00
(PID.TID 0000.0001) // CINT =          0.000000000000000E+00
(PID.TID 0000.0001) // SYMBOLS (CMIN->CMAX): -abcdefghijklmnopqrstuvwxyz+
(PID.TID 0000.0001) //                  0.0: .
(PID.TID 0000.0001) // RANGE I (Lo:Hi:Step):(  -1:   7:   1)
(PID.TID 0000.0001) // RANGE J (Lo:Hi:Step):(   7:  -1:  -1)
(PID.TID 0000.0001) // RANGE K (Lo:Hi:Step):(   1:   1:   1)
(PID.TID 0000.0001) // =======================================================
(PID.TID 0000.0001) // =======================================================
(PID.TID 0000.0001) // END OF FIELD                                          =
(PID.TID 0000.0001) // =======================================================
(PID.TID 0000.0001) 
(PID.TID 0000.0001) // =======================================================
(PID.TID 0000.0001) // Field hFacS at iteration          1
(PID.TID 0000.0001) // CMIN =          1.000000000000000E+00
(PID.TID 0000.0001) // CMAX =          1.000000000000000E+00
(PID.TID 0000.0001) // CINT =          0.000000000000000E+00
(PID.TID 0000.0001) // SYMBOLS (CMIN->CMAX): -abcdefghijklmnopqrstuvwxyz+
(PID.TID 0000.0001) //                  0.0: .
(PID.TID 0000.0001) // RANGE I (Lo:Hi:Step):(  -1:   7:   1)
(PID.TID 0000.0001) // RANGE J (Lo:Hi:Step):(   7:  -1:  -1)
(PID.TID 0000.0001) // RANGE K (Lo:Hi:Step):(   1:   1:   1)
(PID.TID 0000.0001) // =======================================================
(PID.TID 0000.0001) // =======================================================
(PID.TID 0000.0001) // END OF FIELD                                          =
(PID.TID 0000.0001) // =======================================================
(PID.TID 0000.0001) 
(PID.TID 0000.0001) %MON fCori_max                    =  -1.0735540000000E-04
(PID.TID 0000.0001) %MON fCori_min                    =  -1.1783060000000E-04
(PID.TID 0000.0001) %MON fCori_mean                   =  -1.1259300000000E-04
(PID.TID 0000.0001) %MON fCori_sd                     =   3.7035424771427E-06
(PID.TID 0000.0001) %MON fCoriG_max                   =  -1.0866480000000E-04
(PID.TID 0000.0001) %MON fCoriG_min                   =  -1.1914000000000E-04
(PID.TID 0000.0001) %MON fCoriG_mean                  =  -1.1390240000000E-04
(PID.TID 0000.0001) %MON fCoriG_sd                    =   3.7035424771427E-06
(PID.TID 0000.0001) %MON fCoriCos_max                 =   0.0000000000000E+00
(PID.TID 0000.0001) %MON fCoriCos_min                 =   0.0000000000000E+00
(PID.TID 0000.0001) %MON fCoriCos_mean                =   0.0000000000000E+00
(PID.TID 0000.0001) %MON fCoriCos_sd                  =   0.0000000000000E+00
(PID.TID 0000.0001) INI_CG2D: CG2D normalisation factor =  1.9999999999999996E-04
(PID.TID 0000.0001) 
                     ctrl_depth_ini: ctrl update R_low,
                                     adding the control vector.
(PID.TID 0000.0001)  MDSREADFIELD: opening file: xx_depth.0000000000.001.001.data
(PID.TID 0000.0001) // =======================================================
(PID.TID 0000.0001) // Field Model Ro_surf (update_masks_etc) at iteration          1
(PID.TID 0000.0001) // CMIN =          2.273736754432321E-13
(PID.TID 0000.0001) // CMAX =          2.273736754432321E-13
(PID.TID 0000.0001) // CINT =          0.000000000000000E+00
(PID.TID 0000.0001) // SYMBOLS (CMIN->CMAX): -abcdefghijklmnopqrstuvwxyz+
(PID.TID 0000.0001) //                  0.0: .
(PID.TID 0000.0001) // RANGE I (Lo:Hi:Step):(  -1:   7:   1)
(PID.TID 0000.0001) // RANGE J (Lo:Hi:Step):(   7:  -1:  -1)
(PID.TID 0000.0001) // RANGE K (Lo:Hi:Step):(   1:   1:   1)
(PID.TID 0000.0001) // =======================================================
(PID.TID 0000.0001) // =======================================================
(PID.TID 0000.0001) // END OF FIELD                                          =
(PID.TID 0000.0001) // =======================================================
(PID.TID 0000.0001) 
(PID.TID 0000.0001) // =======================================================
(PID.TID 0000.0001) // Field hFacC at iteration          1
(PID.TID 0000.0001) // CMIN =          1.000000000000000E+00
(PID.TID 0000.0001) // CMAX =          1.000000000000000E+00
(PID.TID 0000.0001) // CINT =          0.000000000000000E+00
(PID.TID 0000.0001) // SYMBOLS (CMIN->CMAX): -abcdefghijklmnopqrstuvwxyz+
(PID.TID 0000.0001) //                  0.0: .
(PID.TID 0000.0001) // RANGE I (Lo:Hi:Step):(  -1:   7:   1)
(PID.TID 0000.0001) // RANGE J (Lo:Hi:Step):(   7:  -1:  -1)
(PID.TID 0000.0001) // RANGE K (Lo:Hi:Step):(   1:   1:   1)
(PID.TID 0000.0001) // =======================================================
(PID.TID 0000.0001) // =======================================================
(PID.TID 0000.0001) // END OF FIELD                                          =
(PID.TID 0000.0001) // =======================================================
(PID.TID 0000.0001) 
(PID.TID 0000.0001) // =======================================================
(PID.TID 0000.0001) // Field hFacW at iteration          1
(PID.TID 0000.0001) // CMIN =          1.000000000000000E+00
(PID.TID 0000.0001) // CMAX =          1.000000000000000E+00
(PID.TID 0000.0001) // CINT =          0.000000000000000E+00
(PID.TID 0000.0001) // SYMBOLS (CMIN->CMAX): -abcdefghijklmnopqrstuvwxyz+
(PID.TID 0000.0001) //                  0.0: .
(PID.TID 0000.0001) // RANGE I (Lo:Hi:Step):(  -1:   7:   1)
(PID.TID 0000.0001) // RANGE J (Lo:Hi:Step):(   7:  -1:  -1)
(PID.TID 0000.0001) // RANGE K (Lo:Hi:Step):(   1:   1:   1)
(PID.TID 0000.0001) // =======================================================
(PID.TID 0000.0001) // =======================================================
(PID.TID 0000.0001) // END OF FIELD                                          =
(PID.TID 0000.0001) // =======================================================
(PID.TID 0000.0001) 
(PID.TID 0000.0001) // =======================================================
(PID.TID 0000.0001) // Field hFacS at iteration          1
(PID.TID 0000.0001) // CMIN =          1.000000000000000E+00
(PID.TID 0000.0001) // CMAX =          1.000000000000000E+00
(PID.TID 0000.0001) // CINT =          0.000000000000000E+00
(PID.TID 0000.0001) // SYMBOLS (CMIN->CMAX): -abcdefghijklmnopqrstuvwxyz+
(PID.TID 0000.0001) //                  0.0: .
(PID.TID 0000.0001) // RANGE I (Lo:Hi:Step):(  -1:   7:   1)
(PID.TID 0000.0001) // RANGE J (Lo:Hi:Step):(   7:  -1:  -1)
(PID.TID 0000.0001) // RANGE K (Lo:Hi:Step):(   1:   1:   1)
(PID.TID 0000.0001) // =======================================================
(PID.TID 0000.0001) // =======================================================
(PID.TID 0000.0001) // END OF FIELD                                          =
(PID.TID 0000.0001) // =======================================================
(PID.TID 0000.0001) 
(PID.TID 0000.0001) // =======================================================
(PID.TID 0000.0001) // Field Initial Temperature at iteration          1
(PID.TID 0000.0001) // CMIN =          4.000000000000000E+00
(PID.TID 0000.0001) // CMAX =          4.000000000000000E+00
(PID.TID 0000.0001) // CINT =          0.000000000000000E+00
(PID.TID 0000.0001) // SYMBOLS (CMIN->CMAX): -abcdefghijklmnopqrstuvwxyz+
(PID.TID 0000.0001) //                  0.0: .
(PID.TID 0000.0001) // RANGE I (Lo:Hi:Step):(   1:   5:   1)
(PID.TID 0000.0001) // RANGE J (Lo:Hi:Step):(   5:   1:  -1)
(PID.TID 0000.0001) // RANGE K (Lo:Hi:Step):(   1:   1:   1)
(PID.TID 0000.0001) // =======================================================
(PID.TID 0000.0001) // =======================================================
(PID.TID 0000.0001) // END OF FIELD                                          =
(PID.TID 0000.0001) // =======================================================
(PID.TID 0000.0001) 
(PID.TID 0000.0001) // =======================================================
(PID.TID 0000.0001) // Field Initial Salinity at iteration          1
(PID.TID 0000.0001) // CMIN =          3.500000000000000E+01
(PID.TID 0000.0001) // CMAX =          3.500000000000000E+01
(PID.TID 0000.0001) // CINT =          0.000000000000000E+00
(PID.TID 0000.0001) // SYMBOLS (CMIN->CMAX): -abcdefghijklmnopqrstuvwxyz+
(PID.TID 0000.0001) //                  0.0: .
(PID.TID 0000.0001) // RANGE I (Lo:Hi:Step):(   1:   5:   1)
(PID.TID 0000.0001) // RANGE J (Lo:Hi:Step):(   5:   1:  -1)
(PID.TID 0000.0001) // RANGE K (Lo:Hi:Step):(   1:   1:   1)
(PID.TID 0000.0001) // =======================================================
(PID.TID 0000.0001) // =======================================================
(PID.TID 0000.0001) // END OF FIELD                                          =
(PID.TID 0000.0001) // =======================================================
(PID.TID 0000.0001) 
(PID.TID 0000.0001) Start initial hydrostatic pressure computation
(PID.TID 0000.0001) Pressure is predetermined for buoyancyRelation OCEANIC
(PID.TID 0000.0001) 
(PID.TID 0000.0001)  MDSREADFIELD: opening global file: windx.sin_y
(PID.TID 0000.0001) // =======================================================
(PID.TID 0000.0001) // Begin MONITOR dynamic field statistics
(PID.TID 0000.0001) // =======================================================
(PID.TID 0000.0001) %MON time_tsnumber                =                     0
(PID.TID 0000.0001) %MON time_secondsf                =   0.0000000000000E+00
(PID.TID 0000.0001) %MON dynstat_eta_max              =   0.0000000000000E+00
(PID.TID 0000.0001) %MON dynstat_eta_min              =   0.0000000000000E+00
(PID.TID 0000.0001) %MON dynstat_eta_mean             =   0.0000000000000E+00
(PID.TID 0000.0001) %MON dynstat_eta_sd               =   0.0000000000000E+00
(PID.TID 0000.0001) %MON dynstat_eta_del2             =   0.0000000000000E+00
(PID.TID 0000.0001) %MON dynstat_uvel_max             =   0.0000000000000E+00
(PID.TID 0000.0001) %MON dynstat_uvel_min             =   0.0000000000000E+00
(PID.TID 0000.0001) %MON dynstat_uvel_mean            =   0.0000000000000E+00
(PID.TID 0000.0001) %MON dynstat_uvel_sd              =   0.0000000000000E+00
(PID.TID 0000.0001) %MON dynstat_uvel_del2            =   0.0000000000000E+00
(PID.TID 0000.0001) %MON dynstat_vvel_max             =   0.0000000000000E+00
(PID.TID 0000.0001) %MON dynstat_vvel_min             =   0.0000000000000E+00
(PID.TID 0000.0001) %MON dynstat_vvel_mean            =   0.0000000000000E+00
(PID.TID 0000.0001) %MON dynstat_vvel_sd              =   0.0000000000000E+00
(PID.TID 0000.0001) %MON dynstat_vvel_del2            =   0.0000000000000E+00
(PID.TID 0000.0001) %MON dynstat_wvel_max             =   0.0000000000000E+00
(PID.TID 0000.0001) %MON dynstat_wvel_min             =   0.0000000000000E+00
(PID.TID 0000.0001) %MON dynstat_wvel_mean            =   0.0000000000000E+00
(PID.TID 0000.0001) %MON dynstat_wvel_sd              =   0.0000000000000E+00
(PID.TID 0000.0001) %MON dynstat_wvel_del2            =   0.0000000000000E+00
(PID.TID 0000.0001) %MON dynstat_theta_max            =   4.0000000000000E+00
(PID.TID 0000.0001) %MON dynstat_theta_min            =   4.0000000000000E+00
(PID.TID 0000.0001) %MON dynstat_theta_mean           =   4.0000000000000E+00
(PID.TID 0000.0001) %MON dynstat_theta_sd             =   0.0000000000000E+00
(PID.TID 0000.0001) %MON dynstat_theta_del2           =   0.0000000000000E+00
(PID.TID 0000.0001) %MON dynstat_salt_max             =   3.5000000000000E+01
(PID.TID 0000.0001) %MON dynstat_salt_min             =   3.5000000000000E+01
(PID.TID 0000.0001) %MON dynstat_salt_mean            =   3.5000000000000E+01
(PID.TID 0000.0001) %MON dynstat_salt_sd              =   0.0000000000000E+00
(PID.TID 0000.0001) %MON dynstat_salt_del2            =   0.0000000000000E+00
(PID.TID 0000.0001) %MON advcfl_uvel_max              =   0.0000000000000E+00
(PID.TID 0000.0001) %MON advcfl_vvel_max              =   0.0000000000000E+00
(PID.TID 0000.0001) %MON advcfl_wvel_max              =   0.0000000000000E+00
(PID.TID 0000.0001) %MON advcfl_W_hf_max              =   0.0000000000000E+00
(PID.TID 0000.0001) %MON pe_b_mean                    =   0.0000000000000E+00
(PID.TID 0000.0001) %MON ke_max                       =   0.0000000000000E+00
(PID.TID 0000.0001) %MON ke_mean                      =   0.0000000000000E+00
(PID.TID 0000.0001) %MON ke_vol                       =   3.5207326431489E+15
(PID.TID 0000.0001) %MON vort_r_min                   =   0.0000000000000E+00
(PID.TID 0000.0001) %MON vort_r_max                   =   0.0000000000000E+00
(PID.TID 0000.0001) %MON vort_a_mean                  =  -1.1390240000000E-04
(PID.TID 0000.0001) %MON vort_a_sd                    =   3.7035424771426E-06
(PID.TID 0000.0001) %MON vort_p_mean                  =  -2.2184161870152E-04
(PID.TID 0000.0001) %MON vort_p_sd                    =   1.8699627628429E-04
(PID.TID 0000.0001) %MON surfExpan_theta_mean         =   0.0000000000000E+00
(PID.TID 0000.0001) %MON surfExpan_salt_mean          =   0.0000000000000E+00
(PID.TID 0000.0001) // =======================================================
(PID.TID 0000.0001) // End MONITOR dynamic field statistics
(PID.TID 0000.0001) // =======================================================
 cg2d: Sum(rhs),rhsMax =   0.00000000000000E+00  0.00000000000000E+00
(PID.TID 0000.0001)                    cg2d_init_res =    0.00000000000000E+00
(PID.TID 0000.0001)                       cg2d_iters =     0
(PID.TID 0000.0001)                         cg2d_res =    0.00000000000000E+00
(PID.TID 0000.0001) // =======================================================
(PID.TID 0000.0001) // Begin MONITOR dynamic field statistics
(PID.TID 0000.0001) // =======================================================
(PID.TID 0000.0001) %MON time_tsnumber                =                     1
(PID.TID 0000.0001) %MON time_secondsf                =   3.6000000000000E+03
(PID.TID 0000.0001) %MON dynstat_eta_max              =   0.0000000000000E+00
(PID.TID 0000.0001) %MON dynstat_eta_min              =   0.0000000000000E+00
(PID.TID 0000.0001) %MON dynstat_eta_mean             =   0.0000000000000E+00
(PID.TID 0000.0001) %MON dynstat_eta_sd               =   0.0000000000000E+00
(PID.TID 0000.0001) %MON dynstat_eta_del2             =   0.0000000000000E+00
(PID.TID 0000.0001) %MON dynstat_uvel_max             =   3.6007201440288E-03
(PID.TID 0000.0001) %MON dynstat_uvel_min             =   0.0000000000000E+00
(PID.TID 0000.0001) %MON dynstat_uvel_mean            =   8.1817519453754E-05
(PID.TID 0000.0001) %MON dynstat_uvel_sd              =   5.3657048366644E-04
(PID.TID 0000.0001) %MON dynstat_uvel_del2            =   0.0000000000000E+00
(PID.TID 0000.0001) %MON dynstat_vvel_max             =   0.0000000000000E+00
(PID.TID 0000.0001) %MON dynstat_vvel_min             =   0.0000000000000E+00
(PID.TID 0000.0001) %MON dynstat_vvel_mean            =   0.0000000000000E+00
(PID.TID 0000.0001) %MON dynstat_vvel_sd              =   0.0000000000000E+00
(PID.TID 0000.0001) %MON dynstat_vvel_del2            =   0.0000000000000E+00
(PID.TID 0000.0001) %MON dynstat_wvel_max             =   0.0000000000000E+00
(PID.TID 0000.0001) %MON dynstat_wvel_min             =   0.0000000000000E+00
(PID.TID 0000.0001) %MON dynstat_wvel_mean            =   0.0000000000000E+00
(PID.TID 0000.0001) %MON dynstat_wvel_sd              =   0.0000000000000E+00
(PID.TID 0000.0001) %MON dynstat_wvel_del2            =   0.0000000000000E+00
(PID.TID 0000.0001) %MON dynstat_theta_max            =   4.0000000000000E+00
(PID.TID 0000.0001) %MON dynstat_theta_min            =   4.0000000000000E+00
(PID.TID 0000.0001) %MON dynstat_theta_mean           =   4.0000000000000E+00
(PID.TID 0000.0001) %MON dynstat_theta_sd             =   0.0000000000000E+00
(PID.TID 0000.0001) %MON dynstat_theta_del2           =   0.0000000000000E+00
(PID.TID 0000.0001) %MON dynstat_salt_max             =   3.5000000000000E+01
(PID.TID 0000.0001) %MON dynstat_salt_min             =   3.5000000000000E+01
(PID.TID 0000.0001) %MON dynstat_salt_mean            =   3.5000000000000E+01
(PID.TID 0000.0001) %MON dynstat_salt_sd              =   0.0000000000000E+00
(PID.TID 0000.0001) %MON dynstat_salt_del2            =   0.0000000000000E+00
(PID.TID 0000.0001) %MON advcfl_uvel_max              =   6.4812962592519E-05
(PID.TID 0000.0001) %MON advcfl_vvel_max              =   0.0000000000000E+00
(PID.TID 0000.0001) %MON advcfl_wvel_max              =   0.0000000000000E+00
(PID.TID 0000.0001) %MON advcfl_W_hf_max              =   0.0000000000000E+00
(PID.TID 0000.0001) %MON pe_b_mean                    =   0.0000000000000E+00
(PID.TID 0000.0001) %MON ke_max                       =   6.4825927778074E-06
(PID.TID 0000.0001) %MON ke_mean                      =   1.4730099521580E-07
(PID.TID 0000.0001) %MON ke_vol                       =   3.5207326431489E+15
(PID.TID 0000.0001) %MON vort_r_min                   =  -1.8003600720144E-08
(PID.TID 0000.0001) %MON vort_r_max                   =   1.8003600720144E-08
(PID.TID 0000.0001) %MON vort_a_mean                  =  -1.1390240000000E-04
(PID.TID 0000.0001) %MON vort_a_sd                    =   3.7035003337385E-06
(PID.TID 0000.0001) %MON vort_p_mean                  =  -2.2184161870152E-04
(PID.TID 0000.0001) %MON vort_p_sd                    =   1.8699626978177E-04
(PID.TID 0000.0001) %MON surfExpan_theta_mean         =   0.0000000000000E+00
(PID.TID 0000.0001) %MON surfExpan_salt_mean          =   0.0000000000000E+00
(PID.TID 0000.0001) // =======================================================
(PID.TID 0000.0001) // End MONITOR dynamic field statistics
(PID.TID 0000.0001) // =======================================================
 cg2d: Sum(rhs),rhsMax =   4.68375338513738E-16  2.62483626325265E-03
(PID.TID 0000.0001)                    cg2d_init_res =    3.09128228277455E+00
(PID.TID 0000.0001)                       cg2d_iters =    12
(PID.TID 0000.0001)                         cg2d_res =    4.36411579766516E-19
(PID.TID 0000.0001) // =======================================================
(PID.TID 0000.0001) // Begin MONITOR dynamic field statistics
(PID.TID 0000.0001) // =======================================================
(PID.TID 0000.0001) %MON time_tsnumber                =                     2
(PID.TID 0000.0001) %MON time_secondsf                =   7.2000000000000E+03
(PID.TID 0000.0001) %MON dynstat_eta_max              =   4.9824881905639E-04
(PID.TID 0000.0001) %MON dynstat_eta_min              =  -5.0879816065189E-04
(PID.TID 0000.0001) %MON dynstat_eta_mean             =  -1.0842340998352E-19
(PID.TID 0000.0001) %MON dynstat_eta_sd               =   3.0619134946987E-04
(PID.TID 0000.0001) %MON dynstat_eta_del2             =   3.6720268405832E-05
(PID.TID 0000.0001) %MON dynstat_uvel_max             =   7.1381415082435E-03
(PID.TID 0000.0001) %MON dynstat_uvel_min             =  -1.9661812304289E-05
(PID.TID 0000.0001) %MON dynstat_uvel_mean            =   1.6363503890751E-04
(PID.TID 0000.0001) %MON dynstat_uvel_sd              =   1.0605373401186E-03
(PID.TID 0000.0001) %MON dynstat_uvel_del2            =   4.3349980053572E-06
(PID.TID 0000.0001) %MON dynstat_vvel_max             =   2.3165250420106E-03
(PID.TID 0000.0001) %MON dynstat_vvel_min             =  -6.4660724997460E-05
(PID.TID 0000.0001) %MON dynstat_vvel_mean            =   5.7130796563194E-06
(PID.TID 0000.0001) %MON dynstat_vvel_sd              =   3.4379989505598E-04
(PID.TID 0000.0001) %MON dynstat_vvel_del2            =   4.4601411533684E-06
(PID.TID 0000.0001) %MON dynstat_wvel_max             =   1.2847090347489E-06
(PID.TID 0000.0001) %MON dynstat_wvel_min             =  -1.2251969312375E-06
(PID.TID 0000.0001) %MON dynstat_wvel_mean            =  -1.3042154023424E-23
(PID.TID 0000.0001) %MON dynstat_wvel_sd              =   5.8502510974993E-07
(PID.TID 0000.0001) %MON dynstat_wvel_del2            =   1.9855413842891E-07
(PID.TID 0000.0001) %MON dynstat_theta_max            =   4.0000000000000E+00
(PID.TID 0000.0001) %MON dynstat_theta_min            =   4.0000000000000E+00
(PID.TID 0000.0001) %MON dynstat_theta_mean           =   4.0000000000000E+00
(PID.TID 0000.0001) %MON dynstat_theta_sd             =   0.0000000000000E+00
(PID.TID 0000.0001) %MON dynstat_theta_del2           =   0.0000000000000E+00
(PID.TID 0000.0001) %MON dynstat_salt_max             =   3.5000000000000E+01
(PID.TID 0000.0001) %MON dynstat_salt_min             =   3.5000000000000E+01
(PID.TID 0000.0001) %MON dynstat_salt_mean            =   3.5000000000000E+01
(PID.TID 0000.0001) %MON dynstat_salt_sd              =   0.0000000000000E+00
(PID.TID 0000.0001) %MON dynstat_salt_del2            =   0.0000000000000E+00
(PID.TID 0000.0001) %MON advcfl_uvel_max              =   1.2848654714838E-04
(PID.TID 0000.0001) %MON advcfl_vvel_max              =   4.1697450756191E-05
(PID.TID 0000.0001) %MON advcfl_wvel_max              =   1.8582588774808E-05
(PID.TID 0000.0001) %MON advcfl_W_hf_max              =   9.2499050501918E-05
(PID.TID 0000.0001) %MON pe_b_mean                    =   1.0449169772869E-10
(PID.TID 0000.0001) %MON ke_max                       =   2.7968030510051E-05
(PID.TID 0000.0001) %MON ke_mean                      =   6.2009456554188E-07
(PID.TID 0000.0001) %MON ke_vol                       =   3.5207326431489E+15
(PID.TID 0000.0001) %MON vort_r_min                   =  -3.5690707541217E-08
(PID.TID 0000.0001) %MON vort_r_max                   =   3.5687175573163E-08
(PID.TID 0000.0001) %MON vort_a_mean                  =  -1.1390240000000E-04
(PID.TID 0000.0001) %MON vort_a_sd                    =   3.7034587468393E-06
(PID.TID 0000.0001) %MON vort_p_mean                  =  -2.2184161870152E-04
(PID.TID 0000.0001) %MON vort_p_sd                    =   1.8699626336522E-04
(PID.TID 0000.0001) %MON surfExpan_theta_mean         =  -5.4569682106376E-23
(PID.TID 0000.0001) %MON surfExpan_salt_mean          =  -5.5315751978924E-22
(PID.TID 0000.0001) // =======================================================
(PID.TID 0000.0001) // End MONITOR dynamic field statistics
(PID.TID 0000.0001) // =======================================================
 cg2d: Sum(rhs),rhsMax =   3.76434994286967E-16  5.13362633360820E-03
(PID.TID 0000.0001)                    cg2d_init_res =    1.33008670664171E+00
(PID.TID 0000.0001)                       cg2d_iters =    17
(PID.TID 0000.0001)                         cg2d_res =    6.06352261584458E-14
(PID.TID 0000.0001) // =======================================================
(PID.TID 0000.0001) // Begin MONITOR dynamic field statistics
(PID.TID 0000.0001) // =======================================================
(PID.TID 0000.0001) %MON time_tsnumber                =                     3
(PID.TID 0000.0001) %MON time_secondsf                =   1.0800000000000E+04
(PID.TID 0000.0001) %MON dynstat_eta_max              =   8.8159712525063E-04
(PID.TID 0000.0001) %MON dynstat_eta_min              =  -8.9860937097553E-04
(PID.TID 0000.0001) %MON dynstat_eta_mean             =  -1.3820827007294E-19
(PID.TID 0000.0001) %MON dynstat_eta_sd               =   5.6140027388522E-04
(PID.TID 0000.0001) %MON dynstat_eta_del2             =   6.7642236337641E-05
(PID.TID 0000.0001) %MON dynstat_uvel_max             =   9.9535335650334E-03
(PID.TID 0000.0001) %MON dynstat_uvel_min             =  -2.7449807050219E-05
(PID.TID 0000.0001) %MON dynstat_uvel_mean            =   2.4265730233495E-04
(PID.TID 0000.0001) %MON dynstat_uvel_sd              =   1.4128907217079E-03
(PID.TID 0000.0001) %MON dynstat_uvel_del2            =   5.4279730163208E-05
(PID.TID 0000.0001) %MON dynstat_vvel_max             =   5.9290932258652E-03
(PID.TID 0000.0001) %MON dynstat_vvel_min             =  -1.7530232628355E-04
(PID.TID 0000.0001) %MON dynstat_vvel_mean            =   4.7689690171398E-06
(PID.TID 0000.0001) %MON dynstat_vvel_sd              =   8.8300034393224E-04
(PID.TID 0000.0001) %MON dynstat_vvel_del2            =   1.2103101955344E-05
(PID.TID 0000.0001) %MON dynstat_wvel_max             =   3.2146076528519E-06
(PID.TID 0000.0001) %MON dynstat_wvel_min             =  -3.0690493645703E-06
(PID.TID 0000.0001) %MON dynstat_wvel_mean            =   2.4525174272380E-23
(PID.TID 0000.0001) %MON dynstat_wvel_sd              =   1.6356956407501E-06
(PID.TID 0000.0001) %MON dynstat_wvel_del2            =   5.0441850604461E-07
(PID.TID 0000.0001) %MON dynstat_theta_max            =   4.0000000000000E+00
(PID.TID 0000.0001) %MON dynstat_theta_min            =   4.0000000000000E+00
(PID.TID 0000.0001) %MON dynstat_theta_mean           =   4.0000000000000E+00
(PID.TID 0000.0001) %MON dynstat_theta_sd             =   0.0000000000000E+00
(PID.TID 0000.0001) %MON dynstat_theta_del2           =   0.0000000000000E+00
(PID.TID 0000.0001) %MON dynstat_salt_max             =   3.5000000000000E+01
(PID.TID 0000.0001) %MON dynstat_salt_min             =   3.5000000000000E+01
(PID.TID 0000.0001) %MON dynstat_salt_mean            =   3.5000000000000E+01
(PID.TID 0000.0001) %MON dynstat_salt_sd              =   0.0000000000000E+00
(PID.TID 0000.0001) %MON dynstat_salt_del2            =   0.0000000000000E+00
(PID.TID 0000.0001) %MON advcfl_uvel_max              =   1.7916360417060E-04
(PID.TID 0000.0001) %MON advcfl_vvel_max              =   1.0672367806557E-04
(PID.TID 0000.0001) %MON advcfl_wvel_max              =   4.6290350201067E-05
(PID.TID 0000.0001) %MON advcfl_W_hf_max              =   2.3145175100534E-04
(PID.TID 0000.0001) %MON pe_b_mean                    =   3.5127010627995E-10
(PID.TID 0000.0001) %MON ke_max                       =   5.8729471874594E-05
(PID.TID 0000.0001) %MON ke_mean                      =   1.3199635103511E-06
(PID.TID 0000.0001) %MON ke_vol                       =   3.5207326431489E+15
(PID.TID 0000.0001) %MON vort_r_min                   =  -4.9350085162085E-08
(PID.TID 0000.0001) %MON vort_r_max                   =   4.9767667825167E-08
(PID.TID 0000.0001) %MON vort_a_mean                  =  -1.1390240000000E-04
(PID.TID 0000.0001) %MON vort_a_sd                    =   3.7034193654191E-06
(PID.TID 0000.0001) %MON vort_p_mean                  =  -2.2184161870152E-04
(PID.TID 0000.0001) %MON vort_p_sd                    =   1.8699626171525E-04
(PID.TID 0000.0001) %MON surfExpan_theta_mean         =   7.5033312896267E-23
(PID.TID 0000.0001) %MON surfExpan_salt_mean          =   7.2372330350845E-22
(PID.TID 0000.0001) // =======================================================
(PID.TID 0000.0001) // End MONITOR dynamic field statistics
(PID.TID 0000.0001) // =======================================================
 cg2d: Sum(rhs),rhsMax =   2.51534904016637E-16  7.16168459280808E-03
(PID.TID 0000.0001)                    cg2d_init_res =    7.85679080888425E-01
(PID.TID 0000.0001)                       cg2d_iters =    17
(PID.TID 0000.0001)                         cg2d_res =    8.32763599584212E-14
(PID.TID 0000.0001) // =======================================================
(PID.TID 0000.0001) // Begin MONITOR dynamic field statistics
(PID.TID 0000.0001) // =======================================================
(PID.TID 0000.0001) %MON time_tsnumber                =                     4
(PID.TID 0000.0001) %MON time_secondsf                =   1.4400000000000E+04
(PID.TID 0000.0001) %MON dynstat_eta_max              =   1.1707631944413E-03
(PID.TID 0000.0001) %MON dynstat_eta_min              =  -1.1915003634286E-03
(PID.TID 0000.0001) %MON dynstat_eta_mean             =  -2.1139858290553E-19
(PID.TID 0000.0001) %MON dynstat_eta_sd               =   7.5977201059711E-04
(PID.TID 0000.0001) %MON dynstat_eta_del2             =   9.6377528675953E-05
(PID.TID 0000.0001) %MON dynstat_uvel_max             =   1.1926921900424E-02
(PID.TID 0000.0001) %MON dynstat_uvel_min             =  -1.3306123215959E-05
(PID.TID 0000.0001) %MON dynstat_uvel_mean            =   3.2281490192995E-04
(PID.TID 0000.0001) %MON dynstat_uvel_sd              =   1.5722039104804E-03
(PID.TID 0000.0001) %MON dynstat_uvel_del2            =   1.6074274035711E-04
(PID.TID 0000.0001) %MON dynstat_vvel_max             =   1.0076170842887E-02
(PID.TID 0000.0001) %MON dynstat_vvel_min             =  -3.0120530480154E-04
(PID.TID 0000.0001) %MON dynstat_vvel_mean            =   3.6885899742041E-06
(PID.TID 0000.0001) %MON dynstat_vvel_sd              =   1.4960097387466E-03
(PID.TID 0000.0001) %MON dynstat_vvel_del2            =   2.1964605448508E-05
(PID.TID 0000.0001) %MON dynstat_wvel_max             =   5.3365469417969E-06
(PID.TID 0000.0001) %MON dynstat_wvel_min             =  -5.1234617142953E-06
(PID.TID 0000.0001) %MON dynstat_wvel_mean            =  -8.5648415344102E-24
(PID.TID 0000.0001) %MON dynstat_wvel_sd              =   2.8815066200957E-06
(PID.TID 0000.0001) %MON dynstat_wvel_del2            =   8.9183939702910E-07
(PID.TID 0000.0001) %MON dynstat_theta_max            =   4.0000000000000E+00
(PID.TID 0000.0001) %MON dynstat_theta_min            =   4.0000000000000E+00
(PID.TID 0000.0001) %MON dynstat_theta_mean           =   4.0000000000000E+00
(PID.TID 0000.0001) %MON dynstat_theta_sd             =   0.0000000000000E+00
(PID.TID 0000.0001) %MON dynstat_theta_del2           =   0.0000000000000E+00
(PID.TID 0000.0001) %MON dynstat_salt_max             =   3.5000000000000E+01
(PID.TID 0000.0001) %MON dynstat_salt_min             =   3.5000000000000E+01
(PID.TID 0000.0001) %MON dynstat_salt_mean            =   3.5000000000000E+01
(PID.TID 0000.0001) %MON dynstat_salt_sd              =   0.0000000000000E+00
(PID.TID 0000.0001) %MON dynstat_salt_del2            =   0.0000000000000E+00
(PID.TID 0000.0001) %MON advcfl_uvel_max              =   2.1468459420763E-04
(PID.TID 0000.0001) %MON advcfl_vvel_max              =   1.8137107517197E-04
(PID.TID 0000.0001) %MON advcfl_wvel_max              =   7.6846275961875E-05
(PID.TID 0000.0001) %MON advcfl_W_hf_max              =   3.8423137980938E-04
(PID.TID 0000.0001) %MON pe_b_mean                    =   6.4337255773746E-10
(PID.TID 0000.0001) %MON ke_max                       =   9.3985931815405E-05
(PID.TID 0000.0001) %MON ke_mean                      =   2.1272893275643E-06
(PID.TID 0000.0001) %MON ke_vol                       =   3.5207326431489E+15
(PID.TID 0000.0001) %MON vort_r_min                   =  -5.8302637841733E-08
(PID.TID 0000.0001) %MON vort_r_max                   =   5.9634609502119E-08
(PID.TID 0000.0001) %MON vort_a_mean                  =  -1.1390240000000E-04
(PID.TID 0000.0001) %MON vort_a_sd                    =   3.7033861311905E-06
(PID.TID 0000.0001) %MON vort_p_mean                  =  -2.2184161870152E-04
(PID.TID 0000.0001) %MON vort_p_sd                    =   1.8699626694406E-04
(PID.TID 0000.0001) %MON surfExpan_theta_mean         =   7.7307049650699E-23
(PID.TID 0000.0001) %MON surfExpan_salt_mean          =   7.2795103278622E-22
(PID.TID 0000.0001) // =======================================================
(PID.TID 0000.0001) // End MONITOR dynamic field statistics
(PID.TID 0000.0001) // =======================================================
 cg2d: Sum(rhs),rhsMax =   6.80878964320897E-16  9.29466755986014E-03
(PID.TID 0000.0001)                    cg2d_init_res =    6.21626872467040E-01
(PID.TID 0000.0001)                       cg2d_iters =    17
(PID.TID 0000.0001)                         cg2d_res =    5.93248228154821E-14
(PID.TID 0000.0001) // =======================================================
(PID.TID 0000.0001) // Begin MONITOR dynamic field statistics
(PID.TID 0000.0001) // =======================================================
(PID.TID 0000.0001) %MON time_tsnumber                =                     5
(PID.TID 0000.0001) %MON time_secondsf                =   1.8000000000000E+04
(PID.TID 0000.0001) %MON dynstat_eta_max              =   1.4492445418795E-03
(PID.TID 0000.0001) %MON dynstat_eta_min              =  -1.4728122576240E-03
(PID.TID 0000.0001) %MON dynstat_eta_mean             =  -4.9602240324020E-19
(PID.TID 0000.0001) %MON dynstat_eta_sd               =   9.5917407991071E-04
(PID.TID 0000.0001) %MON dynstat_eta_del2             =   1.2611473199748E-04
(PID.TID 0000.0001) %MON dynstat_uvel_max             =   1.3030184913390E-02
(PID.TID 0000.0001) %MON dynstat_uvel_min             =   2.7003702861651E-05
(PID.TID 0000.0001) %MON dynstat_uvel_mean            =   4.0275926303091E-04
(PID.TID 0000.0001) %MON dynstat_uvel_sd              =   1.5559862127658E-03
(PID.TID 0000.0001) %MON dynstat_uvel_del2            =   3.1744840796333E-04
(PID.TID 0000.0001) %MON dynstat_vvel_max             =   1.4147380966742E-02
(PID.TID 0000.0001) %MON dynstat_vvel_min             =  -4.2010544028379E-04
(PID.TID 0000.0001) %MON dynstat_vvel_mean            =   3.6976703784036E-06
(PID.TID 0000.0001) %MON dynstat_vvel_sd              =   2.0869568891283E-03
(PID.TID 0000.0001) %MON dynstat_vvel_del2            =   6.5673522828646E-05
(PID.TID 0000.0001) %MON dynstat_wvel_max             =   7.3568126258272E-06
(PID.TID 0000.0001) %MON dynstat_wvel_min             =  -7.1239464779401E-06
(PID.TID 0000.0001) %MON dynstat_wvel_mean            =  -4.5817744519029E-23
(PID.TID 0000.0001) %MON dynstat_wvel_sd              =   4.1390957406455E-06
(PID.TID 0000.0001) %MON dynstat_wvel_del2            =   1.3411931810719E-06
(PID.TID 0000.0001) %MON dynstat_theta_max            =   4.0000000000000E+00
(PID.TID 0000.0001) %MON dynstat_theta_min            =   4.0000000000000E+00
(PID.TID 0000.0001) %MON dynstat_theta_mean           =   4.0000000000000E+00
(PID.TID 0000.0001) %MON dynstat_theta_sd             =   0.0000000000000E+00
(PID.TID 0000.0001) %MON dynstat_theta_del2           =   0.0000000000000E+00
(PID.TID 0000.0001) %MON dynstat_salt_max             =   3.5000000000000E+01
(PID.TID 0000.0001) %MON dynstat_salt_min             =   3.5000000000000E+01
(PID.TID 0000.0001) %MON dynstat_salt_mean            =   3.5000000000000E+01
(PID.TID 0000.0001) %MON dynstat_salt_sd              =   0.0000000000000E+00
(PID.TID 0000.0001) %MON dynstat_salt_del2            =   0.0000000000000E+00
(PID.TID 0000.0001) %MON advcfl_uvel_max              =   2.3454332844102E-04
(PID.TID 0000.0001) %MON advcfl_vvel_max              =   2.5465285740135E-04
(PID.TID 0000.0001) %MON advcfl_wvel_max              =   1.0593810181191E-04
(PID.TID 0000.0001) %MON advcfl_W_hf_max              =   5.2969050905956E-04
(PID.TID 0000.0001) %MON pe_b_mean                    =   1.0253941138450E-09
(PID.TID 0000.0001) %MON ke_max                       =   1.3091132058269E-04
(PID.TID 0000.0001) %MON ke_mean                      =   2.9249300828295E-06
(PID.TID 0000.0001) %MON ke_vol                       =   3.5207326431489E+15
(PID.TID 0000.0001) %MON vort_r_min                   =  -6.2486852819710E-08
(PID.TID 0000.0001) %MON vort_r_max                   =   6.5150924566949E-08
(PID.TID 0000.0001) %MON vort_a_mean                  =  -1.1390240000000E-04
(PID.TID 0000.0001) %MON vort_a_sd                    =   3.7033569527003E-06
(PID.TID 0000.0001) %MON vort_p_mean                  =  -2.2184161870152E-04
(PID.TID 0000.0001) %MON vort_p_sd                    =   1.8699627750043E-04
(PID.TID 0000.0001) %MON surfExpan_theta_mean         =  -6.0708771343343E-22
(PID.TID 0000.0001) %MON surfExpan_salt_mean          =  -5.5628746054026E-21
(PID.TID 0000.0001) // =======================================================
(PID.TID 0000.0001) // End MONITOR dynamic field statistics
(PID.TID 0000.0001) // =======================================================
 cg2d: Sum(rhs),rhsMax =   9.26342336171615E-16  1.15304356797511E-02
(PID.TID 0000.0001)                    cg2d_init_res =    5.18246949692020E-01
(PID.TID 0000.0001)                       cg2d_iters =    17
(PID.TID 0000.0001)                         cg2d_res =    3.42608566236605E-14
(PID.TID 0000.0001) // =======================================================
(PID.TID 0000.0001) // Begin MONITOR dynamic field statistics
(PID.TID 0000.0001) // =======================================================
(PID.TID 0000.0001) %MON time_tsnumber                =                     6
(PID.TID 0000.0001) %MON time_secondsf                =   2.1600000000000E+04
(PID.TID 0000.0001) %MON dynstat_eta_max              =   1.7189463862909E-03
(PID.TID 0000.0001) %MON dynstat_eta_min              =  -1.7441868437446E-03
(PID.TID 0000.0001) %MON dynstat_eta_mean             =  -8.2948827184737E-19
(PID.TID 0000.0001) %MON dynstat_eta_sd               =   1.1612668356442E-03
(PID.TID 0000.0001) %MON dynstat_eta_del2             =   1.5691471697330E-04
(PID.TID 0000.0001) %MON dynstat_uvel_max             =   1.3326524549698E-02
(PID.TID 0000.0001) %MON dynstat_uvel_min             =   9.4624732722182E-05
(PID.TID 0000.0001) %MON dynstat_uvel_mean            =   4.8162608497485E-04
(PID.TID 0000.0001) %MON dynstat_uvel_sd              =   1.4194917672595E-03
(PID.TID 0000.0001) %MON dynstat_uvel_del2            =   5.1131960823383E-04
(PID.TID 0000.0001) %MON dynstat_vvel_max             =   1.7607734860119E-02
(PID.TID 0000.0001) %MON dynstat_vvel_min             =  -5.1379970907556E-04
(PID.TID 0000.0001) %MON dynstat_vvel_mean            =   3.7365130552542E-06
(PID.TID 0000.0001) %MON dynstat_vvel_sd              =   2.5728757677668E-03
(PID.TID 0000.0001) %MON dynstat_vvel_del2            =   1.5461270735811E-04
(PID.TID 0000.0001) %MON dynstat_wvel_max             =   9.0369997707705E-06
(PID.TID 0000.0001) %MON dynstat_wvel_min             =  -8.8527609130486E-06
(PID.TID 0000.0001) %MON dynstat_wvel_mean            =   2.1640776789614E-23
(PID.TID 0000.0001) %MON dynstat_wvel_sd              =   5.2695167423348E-06
(PID.TID 0000.0001) %MON dynstat_wvel_del2            =   1.8315479996010E-06
(PID.TID 0000.0001) %MON dynstat_theta_max            =   4.0000000000000E+00
(PID.TID 0000.0001) %MON dynstat_theta_min            =   4.0000000000000E+00
(PID.TID 0000.0001) %MON dynstat_theta_mean           =   4.0000000000000E+00
(PID.TID 0000.0001) %MON dynstat_theta_sd             =   0.0000000000000E+00
(PID.TID 0000.0001) %MON dynstat_theta_del2           =   0.0000000000000E+00
(PID.TID 0000.0001) %MON dynstat_salt_max             =   3.5000000000000E+01
(PID.TID 0000.0001) %MON dynstat_salt_min             =   3.5000000000000E+01
(PID.TID 0000.0001) %MON dynstat_salt_mean            =   3.5000000000000E+01
(PID.TID 0000.0001) %MON dynstat_salt_sd              =   0.0000000000000E+00
(PID.TID 0000.0001) %MON dynstat_salt_del2            =   0.0000000000000E+00
(PID.TID 0000.0001) %MON advcfl_uvel_max              =   2.3987744189456E-04
(PID.TID 0000.0001) %MON advcfl_vvel_max              =   3.1693922748213E-04
(PID.TID 0000.0001) %MON advcfl_wvel_max              =   1.3013279669909E-04
(PID.TID 0000.0001) %MON advcfl_W_hf_max              =   6.5066398349547E-04
(PID.TID 0000.0001) %MON pe_b_mean                    =   1.5030035223307E-09
(PID.TID 0000.0001) %MON ke_max                       =   1.6194353000380E-04
(PID.TID 0000.0001) %MON ke_mean                      =   3.6058491607321E-06
(PID.TID 0000.0001) %MON ke_vol                       =   3.5207326431489E+15
(PID.TID 0000.0001) %MON vort_r_min                   =  -6.2379663379345E-08
(PID.TID 0000.0001) %MON vort_r_max                   =   6.6632622748490E-08
(PID.TID 0000.0001) %MON vort_a_mean                  =  -1.1390240000000E-04
(PID.TID 0000.0001) %MON vort_a_sd                    =   3.7033293597702E-06
(PID.TID 0000.0001) %MON vort_p_mean                  =  -2.2184161870152E-04
(PID.TID 0000.0001) %MON vort_p_sd                    =   1.8699629074801E-04
(PID.TID 0000.0001) %MON surfExpan_theta_mean         =   3.3651303965598E-22
(PID.TID 0000.0001) %MON surfExpan_salt_mean          =   2.4217783334279E-21
(PID.TID 0000.0001) // =======================================================
(PID.TID 0000.0001) // End MONITOR dynamic field statistics
(PID.TID 0000.0001) // =======================================================
 cg2d: Sum(rhs),rhsMax =   6.98659879949659E-16  1.37809802353870E-02
(PID.TID 0000.0001)                    cg2d_init_res =    4.34430801033521E-01
(PID.TID 0000.0001)                       cg2d_iters =    17
(PID.TID 0000.0001)                         cg2d_res =    1.03212684722891E-14
(PID.TID 0000.0001) // =======================================================
(PID.TID 0000.0001) // Begin MONITOR dynamic field statistics
(PID.TID 0000.0001) // =======================================================
(PID.TID 0000.0001) %MON time_tsnumber                =                     7
(PID.TID 0000.0001) %MON time_secondsf                =   2.5200000000000E+04
(PID.TID 0000.0001) %MON dynstat_eta_max              =   1.9708258949325E-03
(PID.TID 0000.0001) %MON dynstat_eta_min              =  -1.9970039283165E-03
(PID.TID 0000.0001) %MON dynstat_eta_mean             =  -7.8055891208351E-19
(PID.TID 0000.0001) %MON dynstat_eta_sd               =   1.3588345798027E-03
(PID.TID 0000.0001) %MON dynstat_eta_del2             =   1.8826826574570E-04
(PID.TID 0000.0001) %MON dynstat_uvel_max             =   1.2967270601644E-02
(PID.TID 0000.0001) %MON dynstat_uvel_min             =   1.8144544627991E-04
(PID.TID 0000.0001) %MON dynstat_uvel_mean            =   5.5924182964684E-04
(PID.TID 0000.0001) %MON dynstat_uvel_sd              =   1.2609684632657E-03
(PID.TID 0000.0001) %MON dynstat_uvel_del2            =   7.2258217336030E-04
(PID.TID 0000.0001) %MON dynstat_vvel_max             =   2.0069210588759E-02
(PID.TID 0000.0001) %MON dynstat_vvel_min             =  -5.6761660898749E-04
(PID.TID 0000.0001) %MON dynstat_vvel_mean            =   3.6384333974321E-06
(PID.TID 0000.0001) %MON dynstat_vvel_sd              =   2.8929087107470E-03
(PID.TID 0000.0001) %MON dynstat_vvel_del2            =   2.9220849271590E-04
(PID.TID 0000.0001) %MON dynstat_wvel_max             =   1.0187963038046E-05
(PID.TID 0000.0001) %MON dynstat_wvel_min             =  -1.0129668070104E-05
(PID.TID 0000.0001) %MON dynstat_wvel_mean            =  -1.0970065237156E-22
(PID.TID 0000.0001) %MON dynstat_wvel_sd              =   6.1647533468756E-06
(PID.TID 0000.0001) %MON dynstat_wvel_del2            =   2.3422491739003E-06
(PID.TID 0000.0001) %MON dynstat_theta_max            =   4.0000000000000E+00
(PID.TID 0000.0001) %MON dynstat_theta_min            =   4.0000000000000E+00
(PID.TID 0000.0001) %MON dynstat_theta_mean           =   4.0000000000000E+00
(PID.TID 0000.0001) %MON dynstat_theta_sd             =   0.0000000000000E+00
(PID.TID 0000.0001) %MON dynstat_theta_del2           =   0.0000000000000E+00
(PID.TID 0000.0001) %MON dynstat_salt_max             =   3.5000000000000E+01
(PID.TID 0000.0001) %MON dynstat_salt_min             =   3.5000000000000E+01
(PID.TID 0000.0001) %MON dynstat_salt_mean            =   3.5000000000000E+01
(PID.TID 0000.0001) %MON dynstat_salt_sd              =   0.0000000000000E+00
(PID.TID 0000.0001) %MON dynstat_salt_del2            =   0.0000000000000E+00
(PID.TID 0000.0001) %MON advcfl_uvel_max              =   2.3341087082959E-04
(PID.TID 0000.0001) %MON advcfl_vvel_max              =   3.6124579059767E-04
(PID.TID 0000.0001) %MON advcfl_wvel_max              =   1.4670666774787E-04
(PID.TID 0000.0001) %MON advcfl_W_hf_max              =   7.3353333873933E-04
(PID.TID 0000.0001) %MON pe_b_mean                    =   2.0579230540578E-09
(PID.TID 0000.0001) %MON ke_max                       =   1.8203473207344E-04
(PID.TID 0000.0001) %MON ke_mean                      =   4.0897467122812E-06
(PID.TID 0000.0001) %MON ke_vol                       =   3.5207326431489E+15
(PID.TID 0000.0001) %MON vort_r_min                   =  -5.8963781077535E-08
(PID.TID 0000.0001) %MON vort_r_max                   =   6.4836353008218E-08
(PID.TID 0000.0001) %MON vort_a_mean                  =  -1.1390240000000E-04
(PID.TID 0000.0001) %MON vort_a_sd                    =   3.7033006619869E-06
(PID.TID 0000.0001) %MON vort_p_mean                  =  -2.2184161870152E-04
(PID.TID 0000.0001) %MON vort_p_sd                    =   1.8699630316978E-04
(PID.TID 0000.0001) %MON surfExpan_theta_mean         =  -5.9344529290684E-22
(PID.TID 0000.0001) %MON surfExpan_salt_mean          =  -5.2953996743099E-21
(PID.TID 0000.0001) // =======================================================
(PID.TID 0000.0001) // End MONITOR dynamic field statistics
(PID.TID 0000.0001) // =======================================================
 cg2d: Sum(rhs),rhsMax =   9.71445146547012E-16  1.60011247469289E-02
(PID.TID 0000.0001)                    cg2d_init_res =    3.70602278679016E-01
(PID.TID 0000.0001)                       cg2d_iters =    17
(PID.TID 0000.0001)                         cg2d_res =    1.32251669929177E-14
(PID.TID 0000.0001) // =======================================================
(PID.TID 0000.0001) // Begin MONITOR dynamic field statistics
(PID.TID 0000.0001) // =======================================================
(PID.TID 0000.0001) %MON time_tsnumber                =                     8
(PID.TID 0000.0001) %MON time_secondsf                =   2.8800000000000E+04
(PID.TID 0000.0001) %MON dynstat_eta_max              =   2.2088309785436E-03
(PID.TID 0000.0001) %MON dynstat_eta_min              =  -2.2498478990492E-03
(PID.TID 0000.0001) %MON dynstat_eta_mean             =  -1.1492695193738E-18
(PID.TID 0000.0001) %MON dynstat_eta_sd               =   1.5512274283115E-03
(PID.TID 0000.0001) %MON dynstat_eta_del2             =   2.2004951083448E-04
(PID.TID 0000.0001) %MON dynstat_uvel_max             =   1.2165530009677E-02
(PID.TID 0000.0001) %MON dynstat_uvel_min             =  -3.1846455521118E-03
(PID.TID 0000.0001) %MON dynstat_uvel_mean            =   6.3531382686726E-04
(PID.TID 0000.0001) %MON dynstat_uvel_sd              =   1.1971493506765E-03
(PID.TID 0000.0001) %MON dynstat_uvel_del2            =   9.2773553950445E-04
(PID.TID 0000.0001) %MON dynstat_vvel_max             =   2.1559025408215E-02
(PID.TID 0000.0001) %MON dynstat_vvel_min             =  -5.8895986375235E-04
(PID.TID 0000.0001) %MON dynstat_vvel_mean            =   3.5280076503601E-06
(PID.TID 0000.0001) %MON dynstat_vvel_sd              =   3.0181586599152E-03
(PID.TID 0000.0001) %MON dynstat_vvel_del2            =   4.8009193457750E-04
(PID.TID 0000.0001) %MON dynstat_wvel_max             =   1.0718460292722E-05
(PID.TID 0000.0001) %MON dynstat_wvel_min             =  -1.0857317952475E-05
(PID.TID 0000.0001) %MON dynstat_wvel_mean            =  -6.9017655083111E-24
(PID.TID 0000.0001) %MON dynstat_wvel_sd              =   6.7768156733882E-06
(PID.TID 0000.0001) %MON dynstat_wvel_del2            =   2.8558636315903E-06
(PID.TID 0000.0001) %MON dynstat_theta_max            =   4.0000000000000E+00
(PID.TID 0000.0001) %MON dynstat_theta_min            =   4.0000000000000E+00
(PID.TID 0000.0001) %MON dynstat_theta_mean           =   4.0000000000000E+00
(PID.TID 0000.0001) %MON dynstat_theta_sd             =   0.0000000000000E+00
(PID.TID 0000.0001) %MON dynstat_theta_del2           =   0.0000000000000E+00
(PID.TID 0000.0001) %MON dynstat_salt_max             =   3.5000000000000E+01
(PID.TID 0000.0001) %MON dynstat_salt_min             =   3.5000000000000E+01
(PID.TID 0000.0001) %MON dynstat_salt_mean            =   3.5000000000000E+01
(PID.TID 0000.0001) %MON dynstat_salt_sd              =   0.0000000000000E+00
(PID.TID 0000.0001) %MON dynstat_salt_del2            =   0.0000000000000E+00
(PID.TID 0000.0001) %MON advcfl_uvel_max              =   2.1897954017418E-04
(PID.TID 0000.0001) %MON advcfl_vvel_max              =   3.8806245734787E-04
(PID.TID 0000.0001) %MON advcfl_wvel_max              =   1.5634537851564E-04
(PID.TID 0000.0001) %MON advcfl_W_hf_max              =   7.8172689257822E-04
(PID.TID 0000.0001) %MON pe_b_mean                    =   2.6819266890790E-09
(PID.TID 0000.0001) %MON ke_max                       =   1.8864278073141E-04
(PID.TID 0000.0001) %MON ke_mean                      =   4.3343804169390E-06
(PID.TID 0000.0001) %MON ke_vol                       =   3.5207326431489E+15
(PID.TID 0000.0001) %MON vort_r_min                   =  -7.0415660795816E-08
(PID.TID 0000.0001) %MON vort_r_max                   =   6.8210191655099E-08
(PID.TID 0000.0001) %MON vort_a_mean                  =  -1.1390240000000E-04
(PID.TID 0000.0001) %MON vort_a_sd                    =   3.7032674039261E-06
(PID.TID 0000.0001) %MON vort_p_mean                  =  -2.2184161870152E-04
(PID.TID 0000.0001) %MON vort_p_sd                    =   1.8699631066312E-04
(PID.TID 0000.0001) %MON surfExpan_theta_mean         =   3.2969182939269E-22
(PID.TID 0000.0001) %MON surfExpan_salt_mean          =   2.8847413346966E-21
(PID.TID 0000.0001) // =======================================================
(PID.TID 0000.0001) // End MONITOR dynamic field statistics
(PID.TID 0000.0001) // =======================================================
 cg2d: Sum(rhs),rhsMax =   5.20417042793042E-16  1.82027337912225E-02
(PID.TID 0000.0001)                    cg2d_init_res =    3.20327127041300E-01
(PID.TID 0000.0001)                       cg2d_iters =    17
(PID.TID 0000.0001)                         cg2d_res =    2.53743813131947E-14
(PID.TID 0000.0001) // =======================================================
(PID.TID 0000.0001) // Begin MONITOR dynamic field statistics
(PID.TID 0000.0001) // =======================================================
(PID.TID 0000.0001) %MON time_tsnumber                =                     9
(PID.TID 0000.0001) %MON time_secondsf                =   3.2400000000000E+04
(PID.TID 0000.0001) %MON dynstat_eta_max              =   2.5019321044169E-03
(PID.TID 0000.0001) %MON dynstat_eta_min              =  -2.5487698131882E-03
(PID.TID 0000.0001) %MON dynstat_eta_mean             =  -8.4025668911636E-19
(PID.TID 0000.0001) %MON dynstat_eta_sd               =   1.7386144969179E-03
(PID.TID 0000.0001) %MON dynstat_eta_del2             =   2.5162119822362E-04
(PID.TID 0000.0001) %MON dynstat_uvel_max             =   1.1159845616347E-02
(PID.TID 0000.0001) %MON dynstat_uvel_min             =  -7.0130979773238E-03
(PID.TID 0000.0001) %MON dynstat_uvel_mean            =   7.0948048707018E-04
(PID.TID 0000.0001) %MON dynstat_uvel_sd              =   1.2729892368667E-03
(PID.TID 0000.0001) %MON dynstat_uvel_del2            =   1.1040923359459E-03
(PID.TID 0000.0001) %MON dynstat_vvel_max             =   2.2073909609270E-02
(PID.TID 0000.0001) %MON dynstat_vvel_min             =  -5.8837527504593E-04
(PID.TID 0000.0001) %MON dynstat_vvel_mean            =   3.4214351179797E-06
(PID.TID 0000.0001) %MON dynstat_vvel_sd              =   2.9561467105366E-03
(PID.TID 0000.0001) %MON dynstat_vvel_del2            =   7.1382986436338E-04
(PID.TID 0000.0001) %MON dynstat_wvel_max             =   1.0788689026931E-05
(PID.TID 0000.0001) %MON dynstat_wvel_min             =  -1.1151596310797E-05
(PID.TID 0000.0001) %MON dynstat_wvel_mean            =   7.0639154208558E-23
(PID.TID 0000.0001) %MON dynstat_wvel_sd              =   7.1330052981108E-06
(PID.TID 0000.0001) %MON dynstat_wvel_del2            =   3.3576624185917E-06
(PID.TID 0000.0001) %MON dynstat_theta_max            =   4.0000000000000E+00
(PID.TID 0000.0001) %MON dynstat_theta_min            =   4.0000000000000E+00
(PID.TID 0000.0001) %MON dynstat_theta_mean           =   4.0000000000000E+00
(PID.TID 0000.0001) %MON dynstat_theta_sd             =   0.0000000000000E+00
(PID.TID 0000.0001) %MON dynstat_theta_del2           =   0.0000000000000E+00
(PID.TID 0000.0001) %MON dynstat_salt_max             =   3.5000000000000E+01
(PID.TID 0000.0001) %MON dynstat_salt_min             =   3.5000000000000E+01
(PID.TID 0000.0001) %MON dynstat_salt_mean            =   3.5000000000000E+01
(PID.TID 0000.0001) %MON dynstat_salt_sd              =   0.0000000000000E+00
(PID.TID 0000.0001) %MON dynstat_salt_del2            =   0.0000000000000E+00
(PID.TID 0000.0001) %MON advcfl_uvel_max              =   2.0087722109425E-04
(PID.TID 0000.0001) %MON advcfl_vvel_max              =   3.9733037296685E-04
(PID.TID 0000.0001) %MON advcfl_wvel_max              =   1.5884707063524E-04
(PID.TID 0000.0001) %MON advcfl_W_hf_max              =   7.9423535317622E-04
(PID.TID 0000.0001) %MON pe_b_mean                    =   3.3690118988779E-09
(PID.TID 0000.0001) %MON ke_max                       =   1.8546672151485E-04
(PID.TID 0000.0001) %MON ke_mean                      =   4.3389877345188E-06
(PID.TID 0000.0001) %MON ke_vol                       =   3.5207326431489E+15
(PID.TID 0000.0001) %MON vort_r_min                   =  -8.4205002677811E-08
(PID.TID 0000.0001) %MON vort_r_max                   =   8.1315602472491E-08
(PID.TID 0000.0001) %MON vort_a_mean                  =  -1.1390240000000E-04
(PID.TID 0000.0001) %MON vort_a_sd                    =   3.7032258587424E-06
(PID.TID 0000.0001) %MON vort_p_mean                  =  -2.2184161870152E-04
(PID.TID 0000.0001) %MON vort_p_sd                    =   1.8699630929253E-04
(PID.TID 0000.0001) %MON surfExpan_theta_mean         =   5.9344529290684E-22
(PID.TID 0000.0001) %MON surfExpan_salt_mean          =   5.0600856837946E-21
(PID.TID 0000.0001) // =======================================================
(PID.TID 0000.0001) // End MONITOR dynamic field statistics
(PID.TID 0000.0001) // =======================================================
 cg2d: Sum(rhs),rhsMax =   6.93889390390723E-17  2.04493560871551E-02
(PID.TID 0000.0001)                    cg2d_init_res =    2.78081387445171E-01
(PID.TID 0000.0001)                       cg2d_iters =    17
(PID.TID 0000.0001)                         cg2d_res =    2.98647466388680E-14
(PID.TID 0000.0001) // =======================================================
(PID.TID 0000.0001) // Begin MONITOR dynamic field statistics
(PID.TID 0000.0001) // =======================================================
(PID.TID 0000.0001) %MON time_tsnumber                =                    10
(PID.TID 0000.0001) %MON time_secondsf                =   3.6000000000000E+04
(PID.TID 0000.0001) %MON dynstat_eta_max              =   2.7873309447747E-03
(PID.TID 0000.0001) %MON dynstat_eta_min              =  -2.8394924926014E-03
(PID.TID 0000.0001) %MON dynstat_eta_mean             =  -1.4108372852206E-19
(PID.TID 0000.0001) %MON dynstat_eta_sd               =   1.9205253573825E-03
(PID.TID 0000.0001) %MON dynstat_eta_del2             =   2.8272355177342E-04
(PID.TID 0000.0001) %MON dynstat_uvel_max             =   1.0177082641055E-02
(PID.TID 0000.0001) %MON dynstat_uvel_min             =  -9.9355361972215E-03
(PID.TID 0000.0001) %MON dynstat_uvel_mean            =   7.8144154227527E-04
(PID.TID 0000.0001) %MON dynstat_uvel_sd              =   1.4139433854399E-03
(PID.TID 0000.0001) %MON dynstat_uvel_del2            =   1.2308980448834E-03
(PID.TID 0000.0001) %MON dynstat_vvel_max             =   2.1603157286683E-02
(PID.TID 0000.0001) %MON dynstat_vvel_min             =  -6.0215654276103E-04
(PID.TID 0000.0001) %MON dynstat_vvel_mean            =   3.3067833014308E-06
(PID.TID 0000.0001) %MON dynstat_vvel_sd              =   2.7498995524854E-03
(PID.TID 0000.0001) %MON dynstat_vvel_del2            =   9.7992198248896E-04
(PID.TID 0000.0001) %MON dynstat_wvel_max             =   1.0331769924339E-05
(PID.TID 0000.0001) %MON dynstat_wvel_min             =  -1.0991781193560E-05
(PID.TID 0000.0001) %MON dynstat_wvel_mean            =  -1.8439355439373E-23
(PID.TID 0000.0001) %MON dynstat_wvel_sd              =   7.3281198863306E-06
(PID.TID 0000.0001) %MON dynstat_wvel_del2            =   3.8364253259564E-06
(PID.TID 0000.0001) %MON dynstat_theta_max            =   4.0000000000000E+00
(PID.TID 0000.0001) %MON dynstat_theta_min            =   4.0000000000000E+00
(PID.TID 0000.0001) %MON dynstat_theta_mean           =   4.0000000000000E+00
(PID.TID 0000.0001) %MON dynstat_theta_sd             =   0.0000000000000E+00
(PID.TID 0000.0001) %MON dynstat_theta_del2           =   0.0000000000000E+00
(PID.TID 0000.0001) %MON dynstat_salt_max             =   3.5000000000000E+01
(PID.TID 0000.0001) %MON dynstat_salt_min             =   3.5000000000000E+01
(PID.TID 0000.0001) %MON dynstat_salt_mean            =   3.5000000000000E+01
(PID.TID 0000.0001) %MON dynstat_salt_sd              =   0.0000000000000E+00
(PID.TID 0000.0001) %MON dynstat_salt_del2            =   0.0000000000000E+00
(PID.TID 0000.0001) %MON advcfl_uvel_max              =   1.8318748753899E-04
(PID.TID 0000.0001) %MON advcfl_vvel_max              =   3.8885683116030E-04
(PID.TID 0000.0001) %MON advcfl_wvel_max              =   1.5557196205086E-04
(PID.TID 0000.0001) %MON advcfl_W_hf_max              =   7.7785981025429E-04
(PID.TID 0000.0001) %MON pe_b_mean                    =   4.1108917714288E-09
(PID.TID 0000.0001) %MON ke_max                       =   1.7974018515035E-04
(PID.TID 0000.0001) %MON ke_mean                      =   4.1406778219520E-06
(PID.TID 0000.0001) %MON ke_vol                       =   3.5207326431489E+15
(PID.TID 0000.0001) %MON vort_r_min                   =  -9.4285797047892E-08
(PID.TID 0000.0001) %MON vort_r_max                   =   9.0689200893496E-08
(PID.TID 0000.0001) %MON vort_a_mean                  =  -1.1390240000000E-04
(PID.TID 0000.0001) %MON vort_a_sd                    =   3.7031727119111E-06
(PID.TID 0000.0001) %MON vort_p_mean                  =  -2.2184161870152E-04
(PID.TID 0000.0001) %MON vort_p_sd                    =   1.8699629603961E-04
(PID.TID 0000.0001) %MON surfExpan_theta_mean         =   1.3869794202037E-22
(PID.TID 0000.0001) %MON surfExpan_salt_mean          =   1.2687895178942E-21
(PID.TID 0000.0001) // =======================================================
(PID.TID 0000.0001) // End MONITOR dynamic field statistics
(PID.TID 0000.0001) // =======================================================
 cg2d: Sum(rhs),rhsMax =   2.08166817117217E-16  2.25706027739098E-02
(PID.TID 0000.0001)                    cg2d_init_res =    2.44335547211450E-01
(PID.TID 0000.0001)                       cg2d_iters =    17
(PID.TID 0000.0001)                         cg2d_res =    2.98596896288465E-14
(PID.TID 0000.0001) // =======================================================
(PID.TID 0000.0001) // Begin MONITOR dynamic field statistics
(PID.TID 0000.0001) // =======================================================
(PID.TID 0000.0001) %MON time_tsnumber                =                    11
(PID.TID 0000.0001) %MON time_secondsf                =   3.9600000000000E+04
(PID.TID 0000.0001) %MON dynstat_eta_max              =   3.0630205984368E-03
(PID.TID 0000.0001) %MON dynstat_eta_min              =  -3.1198310605911E-03
(PID.TID 0000.0001) %MON dynstat_eta_mean             =  -2.8726644814014E-19
(PID.TID 0000.0001) %MON dynstat_eta_sd               =   2.0965715514141E-03
(PID.TID 0000.0001) %MON dynstat_eta_del2             =   3.1320127029506E-04
(PID.TID 0000.0001) %MON dynstat_uvel_max             =   9.4001189813657E-03
(PID.TID 0000.0001) %MON dynstat_uvel_min             =  -1.1548948520232E-02
(PID.TID 0000.0001) %MON dynstat_uvel_mean            =   8.5097227586122E-04
(PID.TID 0000.0001) %MON dynstat_uvel_sd              =   1.5180704211305E-03
(PID.TID 0000.0001) %MON dynstat_uvel_del2            =   1.2948670143428E-03
(PID.TID 0000.0001) %MON dynstat_vvel_max             =   2.0426345578023E-02
(PID.TID 0000.0001) %MON dynstat_vvel_min             =  -5.9991625106018E-04
(PID.TID 0000.0001) %MON dynstat_vvel_mean            =   3.1851865292005E-06
(PID.TID 0000.0001) %MON dynstat_vvel_sd              =   2.4716793671224E-03
(PID.TID 0000.0001) %MON dynstat_vvel_del2            =   1.2614395784784E-03
(PID.TID 0000.0001) %MON dynstat_wvel_max             =   9.4433463772458E-06
(PID.TID 0000.0001) %MON dynstat_wvel_min             =  -1.0401873164973E-05
(PID.TID 0000.0001) %MON dynstat_wvel_mean            =  -6.7915867215821E-23
(PID.TID 0000.0001) %MON dynstat_wvel_sd              =   7.4923559087932E-06
(PID.TID 0000.0001) %MON dynstat_wvel_del2            =   4.2850912496500E-06
(PID.TID 0000.0001) %MON dynstat_theta_max            =   4.0000000000000E+00
(PID.TID 0000.0001) %MON dynstat_theta_min            =   4.0000000000000E+00
(PID.TID 0000.0001) %MON dynstat_theta_mean           =   4.0000000000000E+00
(PID.TID 0000.0001) %MON dynstat_theta_sd             =   0.0000000000000E+00
(PID.TID 0000.0001) %MON dynstat_theta_del2           =   0.0000000000000E+00
(PID.TID 0000.0001) %MON dynstat_salt_max             =   3.5000000000000E+01
(PID.TID 0000.0001) %MON dynstat_salt_min             =   3.5000000000000E+01
(PID.TID 0000.0001) %MON dynstat_salt_mean            =   3.5000000000000E+01
(PID.TID 0000.0001) %MON dynstat_salt_sd              =   0.0000000000000E+00
(PID.TID 0000.0001) %MON dynstat_salt_del2            =   0.0000000000000E+00
(PID.TID 0000.0001) %MON advcfl_uvel_max              =   2.0788107336418E-04
(PID.TID 0000.0001) %MON advcfl_vvel_max              =   3.6767422040441E-04
(PID.TID 0000.0001) %MON advcfl_wvel_max              =   1.4758479209349E-04
(PID.TID 0000.0001) %MON advcfl_W_hf_max              =   7.3792396046746E-04
(PID.TID 0000.0001) %MON pe_b_mean                    =   4.8990889955318E-09
(PID.TID 0000.0001) %MON ke_max                       =   1.6700292191352E-04
(PID.TID 0000.0001) %MON ke_mean                      =   3.8052991986249E-06
(PID.TID 0000.0001) %MON ke_vol                       =   3.5207326431489E+15
(PID.TID 0000.0001) %MON vort_r_min                   =  -9.9588419111446E-08
(PID.TID 0000.0001) %MON vort_r_max                   =   9.5288945283675E-08
(PID.TID 0000.0001) %MON vort_a_mean                  =  -1.1390240000000E-04
(PID.TID 0000.0001) %MON vort_a_sd                    =   3.7031056722350E-06
(PID.TID 0000.0001) %MON vort_p_mean                  =  -2.2184161870152E-04
(PID.TID 0000.0001) %MON vort_p_sd                    =   1.8699626939319E-04
(PID.TID 0000.0001) %MON surfExpan_theta_mean         =  -8.9812601800077E-22
(PID.TID 0000.0001) %MON surfExpan_salt_mean          =  -7.3016703794337E-21
(PID.TID 0000.0001) // =======================================================
(PID.TID 0000.0001) // End MONITOR dynamic field statistics
(PID.TID 0000.0001) // =======================================================
 cg2d: Sum(rhs),rhsMax =   6.24500451351651E-16  2.45301657162020E-02
(PID.TID 0000.0001)                    cg2d_init_res =    2.17609543866030E-01
(PID.TID 0000.0001)                       cg2d_iters =    17
(PID.TID 0000.0001)                         cg2d_res =    3.14434641681222E-14
(PID.TID 0000.0001) // =======================================================
(PID.TID 0000.0001) // Begin MONITOR dynamic field statistics
(PID.TID 0000.0001) // =======================================================
(PID.TID 0000.0001) %MON time_tsnumber                =                    12
(PID.TID 0000.0001) %MON time_secondsf                =   4.3200000000000E+04
(PID.TID 0000.0001) %MON dynstat_eta_max              =   3.3278988031316E-03
(PID.TID 0000.0001) %MON dynstat_eta_min              =  -3.3886036209702E-03
(PID.TID 0000.0001) %MON dynstat_eta_mean             =  -1.4663441106677E-18
(PID.TID 0000.0001) %MON dynstat_eta_sd               =   2.2665807891366E-03
(PID.TID 0000.0001) %MON dynstat_eta_del2             =   3.4302628075958E-04
(PID.TID 0000.0001) %MON dynstat_uvel_max             =   8.9447963944780E-03
(PID.TID 0000.0001) %MON dynstat_uvel_min             =  -1.1665748868228E-02
(PID.TID 0000.0001) %MON dynstat_uvel_mean            =   9.1792195778664E-04
(PID.TID 0000.0001) %MON dynstat_uvel_sd              =   1.5257972487509E-03
(PID.TID 0000.0001) %MON dynstat_uvel_del2            =   1.2906762289875E-03
(PID.TID 0000.0001) %MON dynstat_vvel_max             =   1.8912743620120E-02
(PID.TID 0000.0001) %MON dynstat_vvel_min             =  -6.3160002706290E-04
(PID.TID 0000.0001) %MON dynstat_vvel_mean            =   3.0597617728778E-06
(PID.TID 0000.0001) %MON dynstat_vvel_sd              =   2.2087560768042E-03
(PID.TID 0000.0001) %MON dynstat_vvel_del2            =   1.5396157190802E-03
(PID.TID 0000.0001) %MON dynstat_wvel_max             =   1.0387831909674E-05
(PID.TID 0000.0001) %MON dynstat_wvel_min             =  -9.5589366856868E-06
(PID.TID 0000.0001) %MON dynstat_wvel_mean            =   1.6817856313927E-23
(PID.TID 0000.0001) %MON dynstat_wvel_sd              =   7.7364279773697E-06
(PID.TID 0000.0001) %MON dynstat_wvel_del2            =   4.6997740491601E-06
(PID.TID 0000.0001) %MON dynstat_theta_max            =   4.0000000000000E+00
(PID.TID 0000.0001) %MON dynstat_theta_min            =   4.0000000000000E+00
(PID.TID 0000.0001) %MON dynstat_theta_mean           =   4.0000000000000E+00
(PID.TID 0000.0001) %MON dynstat_theta_sd             =   0.0000000000000E+00
(PID.TID 0000.0001) %MON dynstat_theta_del2           =   0.0000000000000E+00
(PID.TID 0000.0001) %MON dynstat_salt_max             =   3.5000000000000E+01
(PID.TID 0000.0001) %MON dynstat_salt_min             =   3.5000000000000E+01
(PID.TID 0000.0001) %MON dynstat_salt_mean            =   3.5000000000000E+01
(PID.TID 0000.0001) %MON dynstat_salt_sd              =   0.0000000000000E+00
(PID.TID 0000.0001) %MON dynstat_salt_del2            =   0.0000000000000E+00
(PID.TID 0000.0001) %MON advcfl_uvel_max              =   2.0998347962811E-04
(PID.TID 0000.0001) %MON advcfl_vvel_max              =   3.4042938516216E-04
(PID.TID 0000.0001) %MON advcfl_wvel_max              =   1.3693469459095E-04
(PID.TID 0000.0001) %MON advcfl_W_hf_max              =   6.8467347295475E-04
(PID.TID 0000.0001) %MON pe_b_mean                    =   5.7258288015594E-09
(PID.TID 0000.0001) %MON ke_max                       =   1.4976740598867E-04
(PID.TID 0000.0001) %MON ke_mean                      =   3.4147987708019E-06
(PID.TID 0000.0001) %MON ke_vol                       =   3.5207326431489E+15
(PID.TID 0000.0001) %MON vort_r_min                   =  -9.9677325474659E-08
(PID.TID 0000.0001) %MON vort_r_max                   =   9.4699449911414E-08
(PID.TID 0000.0001) %MON vort_a_mean                  =  -1.1390240000000E-04
(PID.TID 0000.0001) %MON vort_a_sd                    =   3.7030239493507E-06
(PID.TID 0000.0001) %MON vort_p_mean                  =  -2.2184161870152E-04
(PID.TID 0000.0001) %MON vort_p_sd                    =   1.8699622970875E-04
(PID.TID 0000.0001) %MON surfExpan_theta_mean         =  -6.8212102632970E-24
(PID.TID 0000.0001) %MON surfExpan_salt_mean          =  -8.7396756498492E-24
(PID.TID 0000.0001) // =======================================================
(PID.TID 0000.0001) // End MONITOR dynamic field statistics
(PID.TID 0000.0001) // =======================================================
 cg2d: Sum(rhs),rhsMax =   9.15933995315754E-16  2.63097944374927E-02
(PID.TID 0000.0001)                    cg2d_init_res =    1.96717948183179E-01
(PID.TID 0000.0001)                       cg2d_iters =    17
(PID.TID 0000.0001)                         cg2d_res =    3.07063575353796E-14
(PID.TID 0000.0001) // =======================================================
(PID.TID 0000.0001) // Begin MONITOR dynamic field statistics
(PID.TID 0000.0001) // =======================================================
(PID.TID 0000.0001) %MON time_tsnumber                =                    13
(PID.TID 0000.0001) %MON time_secondsf                =   4.6800000000000E+04
(PID.TID 0000.0001) %MON dynstat_eta_max              =   3.5816874784549E-03
(PID.TID 0000.0001) %MON dynstat_eta_min              =  -3.6455899137981E-03
(PID.TID 0000.0001) %MON dynstat_eta_mean             =  -2.1710875444114E-18
(PID.TID 0000.0001) %MON dynstat_eta_sd               =   2.4304870617054E-03
(PID.TID 0000.0001) %MON dynstat_eta_del2             =   3.7228152104272E-04
(PID.TID 0000.0001) %MON dynstat_uvel_max             =   8.8489897498607E-03
(PID.TID 0000.0001) %MON dynstat_uvel_min             =  -1.0364873796198E-02
(PID.TID 0000.0001) %MON dynstat_uvel_mean            =   9.8221397380750E-04
(PID.TID 0000.0001) %MON dynstat_uvel_sd              =   1.4265071492523E-03
(PID.TID 0000.0001) %MON dynstat_uvel_del2            =   1.2218392364178E-03
(PID.TID 0000.0001) %MON dynstat_vvel_max             =   1.7405414097330E-02
(PID.TID 0000.0001) %MON dynstat_vvel_min             =  -4.4901752211450E-03
(PID.TID 0000.0001) %MON dynstat_vvel_mean            =   2.9313529430485E-06
(PID.TID 0000.0001) %MON dynstat_vvel_sd              =   2.0353055065430E-03
(PID.TID 0000.0001) %MON dynstat_vvel_del2            =   1.7963959466665E-03
(PID.TID 0000.0001) %MON dynstat_wvel_max             =   1.1886917179611E-05
(PID.TID 0000.0001) %MON dynstat_wvel_min             =  -1.0622968440467E-05
(PID.TID 0000.0001) %MON dynstat_wvel_mean            =   1.1265261231789E-22
(PID.TID 0000.0001) %MON dynstat_wvel_sd              =   8.1005605703816E-06
(PID.TID 0000.0001) %MON dynstat_wvel_del2            =   5.0788482407965E-06
(PID.TID 0000.0001) %MON dynstat_theta_max            =   4.0000000000000E+00
(PID.TID 0000.0001) %MON dynstat_theta_min            =   4.0000000000000E+00
(PID.TID 0000.0001) %MON dynstat_theta_mean           =   4.0000000000000E+00
(PID.TID 0000.0001) %MON dynstat_theta_sd             =   0.0000000000000E+00
(PID.TID 0000.0001) %MON dynstat_theta_del2           =   0.0000000000000E+00
(PID.TID 0000.0001) %MON dynstat_salt_max             =   3.5000000000000E+01
(PID.TID 0000.0001) %MON dynstat_salt_min             =   3.5000000000000E+01
(PID.TID 0000.0001) %MON dynstat_salt_mean            =   3.5000000000000E+01
(PID.TID 0000.0001) %MON dynstat_salt_sd              =   0.0000000000000E+00
(PID.TID 0000.0001) %MON dynstat_salt_del2            =   0.0000000000000E+00
(PID.TID 0000.0001) %MON advcfl_uvel_max              =   1.8656772833157E-04
(PID.TID 0000.0001) %MON advcfl_vvel_max              =   3.1329745375194E-04
(PID.TID 0000.0001) %MON advcfl_wvel_max              =   1.5954298747308E-04
(PID.TID 0000.0001) %MON advcfl_W_hf_max              =   7.9771493736539E-04
(PID.TID 0000.0001) %MON pe_b_mean                    =   6.5838901895704E-09
(PID.TID 0000.0001) %MON ke_max                       =   1.3061942480757E-04
(PID.TID 0000.0001) %MON ke_mean                      =   3.0532623802782E-06
(PID.TID 0000.0001) %MON ke_vol                       =   3.5207326431489E+15
(PID.TID 0000.0001) %MON vort_r_min                   =  -9.4791208534386E-08
(PID.TID 0000.0001) %MON vort_r_max                   =   8.9170100820300E-08
(PID.TID 0000.0001) %MON vort_a_mean                  =  -1.1390240000000E-04
(PID.TID 0000.0001) %MON vort_a_sd                    =   3.7029284654896E-06
(PID.TID 0000.0001) %MON vort_p_mean                  =  -2.2184161870152E-04
(PID.TID 0000.0001) %MON vort_p_sd                    =   1.8699617926903E-04
(PID.TID 0000.0001) %MON surfExpan_theta_mean         =  -1.7053025658242E-22
(PID.TID 0000.0001) %MON surfExpan_salt_mean          =  -1.5245049667101E-21
(PID.TID 0000.0001) // =======================================================
(PID.TID 0000.0001) // End MONITOR dynamic field statistics
(PID.TID 0000.0001) // =======================================================
 cg2d: Sum(rhs),rhsMax =   9.71445146547012E-17  2.79110497217142E-02
(PID.TID 0000.0001)                    cg2d_init_res =    1.80682140736742E-01
(PID.TID 0000.0001)                       cg2d_iters =    17
(PID.TID 0000.0001)                         cg2d_res =    2.46732446019819E-14
(PID.TID 0000.0001) // =======================================================
(PID.TID 0000.0001) // Begin MONITOR dynamic field statistics
(PID.TID 0000.0001) // =======================================================
(PID.TID 0000.0001) %MON time_tsnumber                =                    14
(PID.TID 0000.0001) %MON time_secondsf                =   5.0400000000000E+04
(PID.TID 0000.0001) %MON dynstat_eta_max              =   3.8248260057740E-03
(PID.TID 0000.0001) %MON dynstat_eta_min              =  -3.8914279890366E-03
(PID.TID 0000.0001) %MON dynstat_eta_mean             =  -2.6024645194411E-19
(PID.TID 0000.0001) %MON dynstat_eta_sd               =   2.5882763048967E-03
(PID.TID 0000.0001) %MON dynstat_eta_del2             =   4.0113211504573E-04
(PID.TID 0000.0001) %MON dynstat_uvel_max             =   9.0746302140176E-03
(PID.TID 0000.0001) %MON dynstat_uvel_min             =  -8.3204034226131E-03
(PID.TID 0000.0001) %MON dynstat_uvel_mean            =   1.0438355069900E-03
(PID.TID 0000.0001) %MON dynstat_uvel_sd              =   1.2521225850091E-03
(PID.TID 0000.0001) %MON dynstat_uvel_del2            =   1.0992616947535E-03
(PID.TID 0000.0001) %MON dynstat_vvel_max             =   1.6238321163964E-02
(PID.TID 0000.0001) %MON dynstat_vvel_min             =  -8.2406433212899E-03
(PID.TID 0000.0001) %MON dynstat_vvel_mean            =   2.8000129501607E-06
(PID.TID 0000.0001) %MON dynstat_vvel_sd              =   1.9765347242795E-03
(PID.TID 0000.0001) %MON dynstat_vvel_del2            =   2.0160592721412E-03
(PID.TID 0000.0001) %MON dynstat_wvel_max             =   1.3118899358458E-05
(PID.TID 0000.0001) %MON dynstat_wvel_min             =  -1.1710198025520E-05
(PID.TID 0000.0001) %MON dynstat_wvel_mean            =  -5.5567527722035E-23
(PID.TID 0000.0001) %MON dynstat_wvel_sd              =   8.5481052937440E-06
(PID.TID 0000.0001) %MON dynstat_wvel_del2            =   5.4218781018044E-06
(PID.TID 0000.0001) %MON dynstat_theta_max            =   4.0000000000000E+00
(PID.TID 0000.0001) %MON dynstat_theta_min            =   4.0000000000000E+00
(PID.TID 0000.0001) %MON dynstat_theta_mean           =   4.0000000000000E+00
(PID.TID 0000.0001) %MON dynstat_theta_sd             =   0.0000000000000E+00
(PID.TID 0000.0001) %MON dynstat_theta_del2           =   0.0000000000000E+00
(PID.TID 0000.0001) %MON dynstat_salt_max             =   3.5000000000000E+01
(PID.TID 0000.0001) %MON dynstat_salt_min             =   3.5000000000000E+01
(PID.TID 0000.0001) %MON dynstat_salt_mean            =   3.5000000000000E+01
(PID.TID 0000.0001) %MON dynstat_salt_sd              =   0.0000000000000E+00
(PID.TID 0000.0001) %MON dynstat_salt_del2            =   0.0000000000000E+00
(PID.TID 0000.0001) %MON advcfl_uvel_max              =   1.6334334385232E-04
(PID.TID 0000.0001) %MON advcfl_vvel_max              =   2.9228978095135E-04
(PID.TID 0000.0001) %MON advcfl_wvel_max              =   1.7860395820513E-04
(PID.TID 0000.0001) %MON advcfl_W_hf_max              =   8.9301979102565E-04
(PID.TID 0000.0001) %MON pe_b_mean                    =   7.4665026700038E-09
(PID.TID 0000.0001) %MON ke_max                       =   1.1298746017535E-04
(PID.TID 0000.0001) %MON ke_mean                      =   2.7937132754047E-06
(PID.TID 0000.0001) %MON ke_vol                       =   3.5207326431489E+15
(PID.TID 0000.0001) %MON vort_r_min                   =  -8.5780059659617E-08
(PID.TID 0000.0001) %MON vort_r_max                   =   7.9551931764224E-08
(PID.TID 0000.0001) %MON vort_a_mean                  =  -1.1390240000000E-04
(PID.TID 0000.0001) %MON vort_a_sd                    =   3.7028217225069E-06
(PID.TID 0000.0001) %MON vort_p_mean                  =  -2.2184161870152E-04
(PID.TID 0000.0001) %MON vort_p_sd                    =   1.8699612202419E-04
(PID.TID 0000.0001) %MON surfExpan_theta_mean         =   4.7975845518522E-22
(PID.TID 0000.0001) %MON surfExpan_salt_mean          =   4.4248515962408E-21
(PID.TID 0000.0001) // =======================================================
(PID.TID 0000.0001) // End MONITOR dynamic field statistics
(PID.TID 0000.0001) // =======================================================
 cg2d: Sum(rhs),rhsMax =   1.38777878078145E-17  2.93538602383664E-02
(PID.TID 0000.0001)                    cg2d_init_res =    1.68655306818317E-01
(PID.TID 0000.0001)                       cg2d_iters =    17
(PID.TID 0000.0001)                         cg2d_res =    1.44469888950698E-14
(PID.TID 0000.0001) // =======================================================
(PID.TID 0000.0001) // Begin MONITOR dynamic field statistics
(PID.TID 0000.0001) // =======================================================
(PID.TID 0000.0001) %MON time_tsnumber                =                    15
(PID.TID 0000.0001) %MON time_secondsf                =   5.4000000000000E+04
(PID.TID 0000.0001) %MON dynstat_eta_max              =   4.0582978662726E-03
(PID.TID 0000.0001) %MON dynstat_eta_min              =  -4.1273988154291E-03
(PID.TID 0000.0001) %MON dynstat_eta_mean             =  -2.9272632673383E-19
(PID.TID 0000.0001) %MON dynstat_eta_sd               =   2.7399401130174E-03
(PID.TID 0000.0001) %MON dynstat_eta_del2             =   4.2978697218545E-04
(PID.TID 0000.0001) %MON dynstat_uvel_max             =   9.5214366604806E-03
(PID.TID 0000.0001) %MON dynstat_uvel_min             =  -5.4955657042678E-03
(PID.TID 0000.0001) %MON dynstat_uvel_mean            =   1.1028174819640E-03
(PID.TID 0000.0001) %MON dynstat_uvel_sd              =   1.0716546178319E-03
(PID.TID 0000.0001) %MON dynstat_uvel_del2            =   9.4305601788995E-04
(PID.TID 0000.0001) %MON dynstat_vvel_max             =   1.5659043125488E-02
(PID.TID 0000.0001) %MON dynstat_vvel_min             =  -1.0727490292507E-02
(PID.TID 0000.0001) %MON dynstat_vvel_mean            =   2.6654692584802E-06
(PID.TID 0000.0001) %MON dynstat_vvel_sd              =   2.0034128471377E-03
(PID.TID 0000.0001) %MON dynstat_vvel_del2            =   2.1851093822531E-03
(PID.TID 0000.0001) %MON dynstat_wvel_max             =   1.4037271645868E-05
(PID.TID 0000.0001) %MON dynstat_wvel_min             =  -1.2623528184012E-05
(PID.TID 0000.0001) %MON dynstat_wvel_mean            =   1.3036437199584E-22
(PID.TID 0000.0001) %MON dynstat_wvel_sd              =   9.0074369387767E-06
(PID.TID 0000.0001) %MON dynstat_wvel_del2            =   5.7285776335748E-06
(PID.TID 0000.0001) %MON dynstat_theta_max            =   4.0000000000000E+00
(PID.TID 0000.0001) %MON dynstat_theta_min            =   4.0000000000000E+00
(PID.TID 0000.0001) %MON dynstat_theta_mean           =   4.0000000000000E+00
(PID.TID 0000.0001) %MON dynstat_theta_sd             =   0.0000000000000E+00
(PID.TID 0000.0001) %MON dynstat_theta_del2           =   0.0000000000000E+00
(PID.TID 0000.0001) %MON dynstat_salt_max             =   3.5000000000000E+01
(PID.TID 0000.0001) %MON dynstat_salt_min             =   3.5000000000000E+01
(PID.TID 0000.0001) %MON dynstat_salt_mean            =   3.5000000000000E+01
(PID.TID 0000.0001) %MON dynstat_salt_sd              =   0.0000000000000E+00
(PID.TID 0000.0001) %MON dynstat_salt_del2            =   0.0000000000000E+00
(PID.TID 0000.0001) %MON advcfl_uvel_max              =   1.7138585988865E-04
(PID.TID 0000.0001) %MON advcfl_vvel_max              =   2.8186277625878E-04
(PID.TID 0000.0001) %MON advcfl_wvel_max              =   1.9312042409436E-04
(PID.TID 0000.0001) %MON advcfl_W_hf_max              =   9.6560212047181E-04
(PID.TID 0000.0001) %MON pe_b_mean                    =   8.3671603665985E-09
(PID.TID 0000.0001) %MON ke_max                       =   1.0447648211874E-04
(PID.TID 0000.0001) %MON ke_mean                      =   2.6874513120239E-06
(PID.TID 0000.0001) %MON ke_vol                       =   3.5207326431489E+15
(PID.TID 0000.0001) %MON vort_r_min                   =  -7.4283431021623E-08
(PID.TID 0000.0001) %MON vort_r_max                   =   6.7349346707937E-08
(PID.TID 0000.0001) %MON vort_a_mean                  =  -1.1390240000000E-04
(PID.TID 0000.0001) %MON vort_a_sd                    =   3.7027073619623E-06
(PID.TID 0000.0001) %MON vort_p_mean                  =  -2.2184161870152E-04
(PID.TID 0000.0001) %MON vort_p_sd                    =   1.8699606304908E-04
(PID.TID 0000.0001) %MON surfExpan_theta_mean         =   1.1618794815149E-21
(PID.TID 0000.0001) %MON surfExpan_salt_mean          =   1.0128555771871E-20
(PID.TID 0000.0001) // =======================================================
(PID.TID 0000.0001) // End MONITOR dynamic field statistics
(PID.TID 0000.0001) // =======================================================
 cg2d: Sum(rhs),rhsMax =   3.33066907387547E-16  3.06720439109423E-02
(PID.TID 0000.0001)                    cg2d_init_res =    1.59842238586761E-01
(PID.TID 0000.0001)                       cg2d_iters =    17
(PID.TID 0000.0001)                         cg2d_res =    6.24078606152618E-16
(PID.TID 0000.0001) // =======================================================
(PID.TID 0000.0001) // Begin MONITOR dynamic field statistics
(PID.TID 0000.0001) // =======================================================
(PID.TID 0000.0001) %MON time_tsnumber                =                    16
(PID.TID 0000.0001) %MON time_secondsf                =   5.7600000000000E+04
(PID.TID 0000.0001) %MON dynstat_eta_max              =   4.2833793411311E-03
(PID.TID 0000.0001) %MON dynstat_eta_min              =  -4.3551019309629E-03
(PID.TID 0000.0001) %MON dynstat_eta_mean             =  -8.9738750830293E-19
(PID.TID 0000.0001) %MON dynstat_eta_sd               =   2.8854218042220E-03
(PID.TID 0000.0001) %MON dynstat_eta_del2             =   4.5845445343219E-04
(PID.TID 0000.0001) %MON dynstat_uvel_max             =   1.0049357094529E-02
(PID.TID 0000.0001) %MON dynstat_uvel_min             =  -2.3456627756302E-03
(PID.TID 0000.0001) %MON dynstat_uvel_mean            =   1.1592097079853E-03
(PID.TID 0000.0001) %MON dynstat_uvel_sd              =   9.7179883044245E-04
(PID.TID 0000.0001) %MON dynstat_uvel_del2            =   7.7627000216401E-04
(PID.TID 0000.0001) %MON dynstat_vvel_max             =   1.5795932191345E-02
(PID.TID 0000.0001) %MON dynstat_vvel_min             =  -1.1764642943715E-02
(PID.TID 0000.0001) %MON dynstat_vvel_mean            =   2.5270753731082E-06
(PID.TID 0000.0001) %MON dynstat_vvel_sd              =   2.0740993125983E-03
(PID.TID 0000.0001) %MON dynstat_vvel_del2            =   2.2974267241388E-03
(PID.TID 0000.0001) %MON dynstat_wvel_max             =   1.4514621061672E-05
(PID.TID 0000.0001) %MON dynstat_wvel_min             =  -1.3273513612843E-05
(PID.TID 0000.0001) %MON dynstat_wvel_mean            =   5.7147449946829E-23
(PID.TID 0000.0001) %MON dynstat_wvel_sd              =   9.4225447890691E-06
(PID.TID 0000.0001) %MON dynstat_wvel_del2            =   5.9979745423151E-06
(PID.TID 0000.0001) %MON dynstat_theta_max            =   4.0000000000000E+00
(PID.TID 0000.0001) %MON dynstat_theta_min            =   4.0000000000000E+00
(PID.TID 0000.0001) %MON dynstat_theta_mean           =   4.0000000000000E+00
(PID.TID 0000.0001) %MON dynstat_theta_sd             =   0.0000000000000E+00
(PID.TID 0000.0001) %MON dynstat_theta_del2           =   0.0000000000000E+00
(PID.TID 0000.0001) %MON dynstat_salt_max             =   3.5000000000000E+01
(PID.TID 0000.0001) %MON dynstat_salt_min             =   3.5000000000000E+01
(PID.TID 0000.0001) %MON dynstat_salt_mean            =   3.5000000000000E+01
(PID.TID 0000.0001) %MON dynstat_salt_sd              =   0.0000000000000E+00
(PID.TID 0000.0001) %MON dynstat_salt_del2            =   0.0000000000000E+00
(PID.TID 0000.0001) %MON advcfl_uvel_max              =   1.8088842770152E-04
(PID.TID 0000.0001) %MON advcfl_vvel_max              =   2.8432677944421E-04
(PID.TID 0000.0001) %MON advcfl_wvel_max              =   2.0264037923468E-04
(PID.TID 0000.0001) %MON advcfl_W_hf_max              =   1.0132018961734E-03
(PID.TID 0000.0001) %MON pe_b_mean                    =   9.2792862115168E-09
(PID.TID 0000.0001) %MON ke_max                       =   1.1039182129578E-04
(PID.TID 0000.0001) %MON ke_mean                      =   2.7572904362048E-06
(PID.TID 0000.0001) %MON ke_vol                       =   3.5207326431489E+15
(PID.TID 0000.0001) %MON vort_r_min                   =  -6.1597678750716E-08
(PID.TID 0000.0001) %MON vort_r_max                   =   5.4078704967210E-08
(PID.TID 0000.0001) %MON vort_a_mean                  =  -1.1390240000000E-04
(PID.TID 0000.0001) %MON vort_a_sd                    =   3.7025895434355E-06
(PID.TID 0000.0001) %MON vort_p_mean                  =  -2.2184161870152E-04
(PID.TID 0000.0001) %MON vort_p_sd                    =   1.8699600780436E-04
(PID.TID 0000.0001) %MON surfExpan_theta_mean         =   8.5833562479820E-22
(PID.TID 0000.0001) %MON surfExpan_salt_mean          =   7.3048145310395E-21
(PID.TID 0000.0001) // =======================================================
(PID.TID 0000.0001) // End MONITOR dynamic field statistics
(PID.TID 0000.0001) // =======================================================
 cg2d: Sum(rhs),rhsMax =  -4.99600361081320E-16  3.19067816610536E-02
(PID.TID 0000.0001)                    cg2d_init_res =    1.53437752574175E-01
(PID.TID 0000.0001)                       cg2d_iters =    17
(PID.TID 0000.0001)                         cg2d_res =    1.32553060868661E-14
(PID.TID 0000.0001) // =======================================================
(PID.TID 0000.0001) // Begin MONITOR dynamic field statistics
(PID.TID 0000.0001) // =======================================================
(PID.TID 0000.0001) %MON time_tsnumber                =                    17
(PID.TID 0000.0001) %MON time_secondsf                =   6.1200000000000E+04
(PID.TID 0000.0001) %MON dynstat_eta_max              =   4.5013534799003E-03
(PID.TID 0000.0001) %MON dynstat_eta_min              =  -4.5760920066740E-03
(PID.TID 0000.0001) %MON dynstat_eta_mean             =   1.1085881851614E-18
(PID.TID 0000.0001) %MON dynstat_eta_sd               =   3.0245767959455E-03
(PID.TID 0000.0001) %MON dynstat_eta_del2             =   4.8729990409175E-04
(PID.TID 0000.0001) %MON dynstat_uvel_max             =   1.0552804920267E-02
(PID.TID 0000.0001) %MON dynstat_uvel_min             =   5.6824160351962E-04
(PID.TID 0000.0001) %MON dynstat_uvel_mean            =   1.2130553816391E-03
(PID.TID 0000.0001) %MON dynstat_uvel_sd              =   9.9058171056621E-04
(PID.TID 0000.0001) %MON dynstat_uvel_del2            =   6.1768091280361E-04
(PID.TID 0000.0001) %MON dynstat_vvel_max             =   1.6646143465469E-02
(PID.TID 0000.0001) %MON dynstat_vvel_min             =  -1.1381780179564E-02
(PID.TID 0000.0001) %MON dynstat_vvel_mean            =   2.3839646609605E-06
(PID.TID 0000.0001) %MON dynstat_vvel_sd              =   2.1720202590031E-03
(PID.TID 0000.0001) %MON dynstat_vvel_del2            =   2.3531394122784E-03
(PID.TID 0000.0001) %MON dynstat_wvel_max             =   1.4612328300500E-05
(PID.TID 0000.0001) %MON dynstat_wvel_min             =  -1.3812954656716E-05
(PID.TID 0000.0001) %MON dynstat_wvel_mean            =   2.4114602378436E-23
(PID.TID 0000.0001) %MON dynstat_wvel_sd              =   9.7787243412286E-06
(PID.TID 0000.0001) %MON dynstat_wvel_del2            =   6.2279118458385E-06
(PID.TID 0000.0001) %MON dynstat_theta_max            =   4.0000000000000E+00
(PID.TID 0000.0001) %MON dynstat_theta_min            =   4.0000000000000E+00
(PID.TID 0000.0001) %MON dynstat_theta_mean           =   4.0000000000000E+00
(PID.TID 0000.0001) %MON dynstat_theta_sd             =   0.0000000000000E+00
(PID.TID 0000.0001) %MON dynstat_theta_del2           =   0.0000000000000E+00
(PID.TID 0000.0001) %MON dynstat_salt_max             =   3.5000000000000E+01
(PID.TID 0000.0001) %MON dynstat_salt_min             =   3.5000000000000E+01
(PID.TID 0000.0001) %MON dynstat_salt_mean            =   3.5000000000000E+01
(PID.TID 0000.0001) %MON dynstat_salt_sd              =   0.0000000000000E+00
(PID.TID 0000.0001) %MON dynstat_salt_del2            =   0.0000000000000E+00
(PID.TID 0000.0001) %MON advcfl_uvel_max              =   1.8995048856480E-04
(PID.TID 0000.0001) %MON advcfl_vvel_max              =   2.9963058237844E-04
(PID.TID 0000.0001) %MON advcfl_wvel_max              =   2.0728234828726E-04
(PID.TID 0000.0001) %MON advcfl_W_hf_max              =   1.0364117414363E-03
(PID.TID 0000.0001) %MON pe_b_mean                    =   1.0195890995516E-08
(PID.TID 0000.0001) %MON ke_max                       =   1.2158569971156E-04
(PID.TID 0000.0001) %MON ke_mean                      =   2.9955068754187E-06
(PID.TID 0000.0001) %MON ke_vol                       =   3.5207326431489E+15
(PID.TID 0000.0001) %MON vort_r_min                   =  -5.2764024601333E-08
(PID.TID 0000.0001) %MON vort_r_max                   =   5.2527887706335E-08
(PID.TID 0000.0001) %MON vort_a_mean                  =  -1.1390240000000E-04
(PID.TID 0000.0001) %MON vort_a_sd                    =   3.7024722964684E-06
(PID.TID 0000.0001) %MON vort_p_mean                  =  -2.2184161870152E-04
(PID.TID 0000.0001) %MON vort_p_sd                    =   1.8699596131941E-04
(PID.TID 0000.0001) %MON surfExpan_theta_mean         =  -2.1486812329385E-22
(PID.TID 0000.0001) %MON surfExpan_salt_mean          =  -2.0033352754467E-21
(PID.TID 0000.0001) // =======================================================
(PID.TID 0000.0001) // End MONITOR dynamic field statistics
(PID.TID 0000.0001) // =======================================================
 cg2d: Sum(rhs),rhsMax =  -4.16333634234434E-17  3.30992667639499E-02
(PID.TID 0000.0001)                    cg2d_init_res =    1.48599727968974E-01
(PID.TID 0000.0001)                       cg2d_iters =    17
(PID.TID 0000.0001)                         cg2d_res =    2.15890515932039E-14
(PID.TID 0000.0001) // =======================================================
(PID.TID 0000.0001) // Begin MONITOR dynamic field statistics
(PID.TID 0000.0001) // =======================================================
(PID.TID 0000.0001) %MON time_tsnumber                =                    18
(PID.TID 0000.0001) %MON time_secondsf                =   6.4800000000000E+04
(PID.TID 0000.0001) %MON dynstat_eta_max              =   4.7132323846379E-03
(PID.TID 0000.0001) %MON dynstat_eta_min              =  -4.7915442313370E-03
(PID.TID 0000.0001) %MON dynstat_eta_mean             =   2.6841880753636E-19
(PID.TID 0000.0001) %MON dynstat_eta_sd               =   3.1571583016353E-03
(PID.TID 0000.0001) %MON dynstat_eta_del2             =   5.1641199943008E-04
(PID.TID 0000.0001) %MON dynstat_uvel_max             =   1.0860104196747E-02
(PID.TID 0000.0001) %MON dynstat_uvel_min             =   5.7703951453752E-04
(PID.TID 0000.0001) %MON dynstat_uvel_mean            =   1.2643688418101E-03
(PID.TID 0000.0001) %MON dynstat_uvel_sd              =   1.0701964324433E-03
(PID.TID 0000.0001) %MON dynstat_uvel_del2            =   4.8163173963155E-04
(PID.TID 0000.0001) %MON dynstat_vvel_max             =   1.8084882124090E-02
(PID.TID 0000.0001) %MON dynstat_vvel_min             =  -9.8056194102356E-03
(PID.TID 0000.0001) %MON dynstat_vvel_mean            =   2.2352833480823E-06
(PID.TID 0000.0001) %MON dynstat_vvel_sd              =   2.3063211948492E-03
(PID.TID 0000.0001) %MON dynstat_vvel_del2            =   2.3581235597933E-03
(PID.TID 0000.0001) %MON dynstat_wvel_max             =   1.4589144075641E-05
(PID.TID 0000.0001) %MON dynstat_wvel_min             =  -1.4196965063583E-05
(PID.TID 0000.0001) %MON dynstat_wvel_mean            =  -4.8374723909157E-23
(PID.TID 0000.0001) %MON dynstat_wvel_sd              =   1.0096926461862E-05
(PID.TID 0000.0001) %MON dynstat_wvel_del2            =   6.4149605949110E-06
(PID.TID 0000.0001) %MON dynstat_theta_max            =   4.0000000000000E+00
(PID.TID 0000.0001) %MON dynstat_theta_min            =   4.0000000000000E+00
(PID.TID 0000.0001) %MON dynstat_theta_mean           =   4.0000000000000E+00
(PID.TID 0000.0001) %MON dynstat_theta_sd             =   0.0000000000000E+00
(PID.TID 0000.0001) %MON dynstat_theta_del2           =   0.0000000000000E+00
(PID.TID 0000.0001) %MON dynstat_salt_max             =   3.5000000000000E+01
(PID.TID 0000.0001) %MON dynstat_salt_min             =   3.5000000000000E+01
(PID.TID 0000.0001) %MON dynstat_salt_mean            =   3.5000000000000E+01
(PID.TID 0000.0001) %MON dynstat_salt_sd              =   0.0000000000000E+00
(PID.TID 0000.0001) %MON dynstat_salt_del2            =   0.0000000000000E+00
(PID.TID 0000.0001) %MON advcfl_uvel_max              =   1.9548187554144E-04
(PID.TID 0000.0001) %MON advcfl_vvel_max              =   3.2552787823362E-04
(PID.TID 0000.0001) %MON advcfl_wvel_max              =   2.0767915093426E-04
(PID.TID 0000.0001) %MON advcfl_W_hf_max              =   1.0383957546713E-03
(PID.TID 0000.0001) %MON pe_b_mean                    =   1.1109350479449E-08
(PID.TID 0000.0001) %MON ke_max                       =   1.3629217801019E-04
(PID.TID 0000.0001) %MON ke_mean                      =   3.3666454049407E-06
(PID.TID 0000.0001) %MON ke_vol                       =   3.5207326431489E+15
(PID.TID 0000.0001) %MON vort_r_min                   =  -5.4300520983733E-08
(PID.TID 0000.0001) %MON vort_r_max                   =   5.3757815497549E-08
(PID.TID 0000.0001) %MON vort_a_mean                  =  -1.1390240000000E-04
(PID.TID 0000.0001) %MON vort_a_sd                    =   3.7023589758927E-06
(PID.TID 0000.0001) %MON vort_p_mean                  =  -2.2184161870152E-04
(PID.TID 0000.0001) %MON vort_p_sd                    =   1.8699592742635E-04
(PID.TID 0000.0001) %MON surfExpan_theta_mean         =   3.5356606531423E-22
(PID.TID 0000.0001) %MON surfExpan_salt_mean          =   3.7087088955445E-21
(PID.TID 0000.0001) // =======================================================
(PID.TID 0000.0001) // End MONITOR dynamic field statistics
(PID.TID 0000.0001) // =======================================================
 cg2d: Sum(rhs),rhsMax =  -6.31439345255558E-16  3.42837432842201E-02
(PID.TID 0000.0001)                    cg2d_init_res =    1.44481760995587E-01
(PID.TID 0000.0001)                       cg2d_iters =    17
(PID.TID 0000.0001)                         cg2d_res =    2.10842149290715E-14
(PID.TID 0000.0001) // =======================================================
(PID.TID 0000.0001) // Begin MONITOR dynamic field statistics
(PID.TID 0000.0001) // =======================================================
(PID.TID 0000.0001) %MON time_tsnumber                =                    19
(PID.TID 0000.0001) %MON time_secondsf                =   6.8400000000000E+04
(PID.TID 0000.0001) %MON dynstat_eta_max              =   4.9195276456783E-03
(PID.TID 0000.0001) %MON dynstat_eta_min              =  -5.0020014209871E-03
(PID.TID 0000.0001) %MON dynstat_eta_mean             =   1.5502097085118E-18
(PID.TID 0000.0001) %MON dynstat_eta_sd               =   3.2828274702336E-03
(PID.TID 0000.0001) %MON dynstat_eta_del2             =   5.4578276252206E-04
(PID.TID 0000.0001) %MON dynstat_uvel_max             =   1.0702073968498E-02
(PID.TID 0000.0001) %MON dynstat_uvel_min             =   5.9589170056929E-04
(PID.TID 0000.0001) %MON dynstat_uvel_mean            =   1.3131200126507E-03
(PID.TID 0000.0001) %MON dynstat_uvel_sd              =   1.1248330237532E-03
(PID.TID 0000.0001) %MON dynstat_uvel_del2            =   3.8033737896554E-04
(PID.TID 0000.0001) %MON dynstat_vvel_max             =   1.9892937494035E-02
(PID.TID 0000.0001) %MON dynstat_vvel_min             =  -7.4127421567109E-03
(PID.TID 0000.0001) %MON dynstat_vvel_mean            =   2.0803977495631E-06
(PID.TID 0000.0001) %MON dynstat_vvel_sd              =   2.4872052285762E-03
(PID.TID 0000.0001) %MON dynstat_vvel_del2            =   2.3234098651507E-03
(PID.TID 0000.0001) %MON dynstat_wvel_max             =   1.4303464759115E-05
(PID.TID 0000.0001) %MON dynstat_wvel_min             =  -1.4298271326125E-05
(PID.TID 0000.0001) %MON dynstat_wvel_mean            =   4.0225651381271E-23
(PID.TID 0000.0001) %MON dynstat_wvel_sd              =   1.0406496146215E-05
(PID.TID 0000.0001) %MON dynstat_wvel_del2            =   6.5547447035240E-06
(PID.TID 0000.0001) %MON dynstat_theta_max            =   4.0000000000000E+00
(PID.TID 0000.0001) %MON dynstat_theta_min            =   4.0000000000000E+00
(PID.TID 0000.0001) %MON dynstat_theta_mean           =   4.0000000000000E+00
(PID.TID 0000.0001) %MON dynstat_theta_sd             =   0.0000000000000E+00
(PID.TID 0000.0001) %MON dynstat_theta_del2           =   0.0000000000000E+00
(PID.TID 0000.0001) %MON dynstat_salt_max             =   3.5000000000000E+01
(PID.TID 0000.0001) %MON dynstat_salt_min             =   3.5000000000000E+01
(PID.TID 0000.0001) %MON dynstat_salt_mean            =   3.5000000000000E+01
(PID.TID 0000.0001) %MON dynstat_salt_sd              =   0.0000000000000E+00
(PID.TID 0000.0001) %MON dynstat_salt_del2            =   0.0000000000000E+00
(PID.TID 0000.0001) %MON advcfl_uvel_max              =   1.9263733143296E-04
(PID.TID 0000.0001) %MON advcfl_vvel_max              =   3.5807287489262E-04
(PID.TID 0000.0001) %MON advcfl_wvel_max              =   2.0485223843423E-04
(PID.TID 0000.0001) %MON advcfl_W_hf_max              =   1.0242611921711E-03
(PID.TID 0000.0001) %MON pe_b_mean                    =   1.2011356843134E-08
(PID.TID 0000.0001) %MON ke_max                       =   1.5241775374276E-04
(PID.TID 0000.0001) %MON ke_mean                      =   3.8145895658917E-06
(PID.TID 0000.0001) %MON ke_vol                       =   3.5207326431489E+15
(PID.TID 0000.0001) %MON vort_r_min                   =  -5.3510369842488E-08
(PID.TID 0000.0001) %MON vort_r_max                   =   5.3429727878662E-08
(PID.TID 0000.0001) %MON vort_a_mean                  =  -1.1390240000000E-04
(PID.TID 0000.0001) %MON vort_a_sd                    =   3.7022518914427E-06
(PID.TID 0000.0001) %MON vort_p_mean                  =  -2.2184161870152E-04
(PID.TID 0000.0001) %MON vort_p_sd                    =   1.8699590816374E-04
(PID.TID 0000.0001) %MON surfExpan_theta_mean         =   3.3537617127877E-22
(PID.TID 0000.0001) %MON surfExpan_salt_mean          =   2.6566349120571E-21
(PID.TID 0000.0001) // =======================================================
(PID.TID 0000.0001) // End MONITOR dynamic field statistics
(PID.TID 0000.0001) // =======================================================
 cg2d: Sum(rhs),rhsMax =  -1.17961196366423E-16  3.54819650782976E-02
(PID.TID 0000.0001)                    cg2d_init_res =    1.40325001452898E-01
(PID.TID 0000.0001)                       cg2d_iters =    17
(PID.TID 0000.0001)                         cg2d_res =    1.42633311034167E-14
(PID.TID 0000.0001) // =======================================================
(PID.TID 0000.0001) // Begin MONITOR dynamic field statistics
(PID.TID 0000.0001) // =======================================================
(PID.TID 0000.0001) %MON time_tsnumber                =                    20
(PID.TID 0000.0001) %MON time_secondsf                =   7.2000000000000E+04
(PID.TID 0000.0001) %MON dynstat_eta_max              =   5.1201061532323E-03
(PID.TID 0000.0001) %MON dynstat_eta_min              =  -5.2072379715057E-03
(PID.TID 0000.0001) %MON dynstat_eta_mean             =   9.6217263489962E-20
(PID.TID 0000.0001) %MON dynstat_eta_sd               =   3.4011819297434E-03
(PID.TID 0000.0001) %MON dynstat_eta_del2             =   5.7530372293967E-04
(PID.TID 0000.0001) %MON dynstat_uvel_max             =   1.0260030755588E-02
(PID.TID 0000.0001) %MON dynstat_uvel_min             =   6.0926950873444E-04
(PID.TID 0000.0001) %MON dynstat_uvel_mean            =   1.3592278329482E-03
(PID.TID 0000.0001) %MON dynstat_uvel_sd              =   1.1033366143796E-03
(PID.TID 0000.0001) %MON dynstat_uvel_del2            =   3.2313922322895E-04
(PID.TID 0000.0001) %MON dynstat_vvel_max             =   2.1845774611751E-02
(PID.TID 0000.0001) %MON dynstat_vvel_min             =  -4.6628885806608E-03
(PID.TID 0000.0001) %MON dynstat_vvel_mean            =   1.9190678619645E-06
(PID.TID 0000.0001) %MON dynstat_vvel_sd              =   2.7031708872515E-03
(PID.TID 0000.0001) %MON dynstat_vvel_del2            =   2.2635209678354E-03
(PID.TID 0000.0001) %MON dynstat_wvel_max             =   1.3891576670228E-05
(PID.TID 0000.0001) %MON dynstat_wvel_min             =  -1.4165602009080E-05
(PID.TID 0000.0001) %MON dynstat_wvel_mean            =   4.1576900652477E-26
(PID.TID 0000.0001) %MON dynstat_wvel_sd              =   1.0714090686167E-05
(PID.TID 0000.0001) %MON dynstat_wvel_del2            =   6.6426070222075E-06
(PID.TID 0000.0001) %MON dynstat_theta_max            =   4.0000000000000E+00
(PID.TID 0000.0001) %MON dynstat_theta_min            =   4.0000000000000E+00
(PID.TID 0000.0001) %MON dynstat_theta_mean           =   4.0000000000000E+00
(PID.TID 0000.0001) %MON dynstat_theta_sd             =   0.0000000000000E+00
(PID.TID 0000.0001) %MON dynstat_theta_del2           =   0.0000000000000E+00
(PID.TID 0000.0001) %MON dynstat_salt_max             =   3.5000000000000E+01
(PID.TID 0000.0001) %MON dynstat_salt_min             =   3.5000000000000E+01
(PID.TID 0000.0001) %MON dynstat_salt_mean            =   3.5000000000000E+01
(PID.TID 0000.0001) %MON dynstat_salt_sd              =   0.0000000000000E+00
(PID.TID 0000.0001) %MON dynstat_salt_del2            =   0.0000000000000E+00
(PID.TID 0000.0001) %MON advcfl_uvel_max              =   1.8468055360059E-04
(PID.TID 0000.0001) %MON advcfl_vvel_max              =   3.9322394301152E-04
(PID.TID 0000.0001) %MON advcfl_wvel_max              =   2.0164945944034E-04
(PID.TID 0000.0001) %MON advcfl_W_hf_max              =   1.0082472972017E-03
(PID.TID 0000.0001) %MON pe_b_mean                    =   1.2893050325114E-08
(PID.TID 0000.0001) %MON ke_max                       =   1.6760275209045E-04
(PID.TID 0000.0001) %MON ke_mean                      =   4.2726021914354E-06
(PID.TID 0000.0001) %MON ke_vol                       =   3.5207326431489E+15
(PID.TID 0000.0001) %MON vort_r_min                   =  -5.0175179583794E-08
(PID.TID 0000.0001) %MON vort_r_max                   =   5.1300153777942E-08
(PID.TID 0000.0001) %MON vort_a_mean                  =  -1.1390240000000E-04
(PID.TID 0000.0001) %MON vort_a_sd                    =   3.7021521238992E-06
(PID.TID 0000.0001) %MON vort_p_mean                  =  -2.2184161870152E-04
(PID.TID 0000.0001) %MON vort_p_sd                    =   1.8699590344075E-04
(PID.TID 0000.0001) %MON surfExpan_theta_mean         =  -3.8653524825349E-23
(PID.TID 0000.0001) %MON surfExpan_salt_mean          =   2.3323565301325E-23
(PID.TID 0000.0001) // =======================================================
(PID.TID 0000.0001) // End MONITOR dynamic field statistics
(PID.TID 0000.0001) // =======================================================
 cg2d: Sum(rhs),rhsMax =  -4.02455846426619E-16  3.66998058458972E-02
(PID.TID 0000.0001)                    cg2d_init_res =    1.35571113298068E-01
(PID.TID 0000.0001)                       cg2d_iters =    17
(PID.TID 0000.0001)                         cg2d_res =    2.33334758682984E-14
(PID.TID 0000.0001) // =======================================================
(PID.TID 0000.0001) // Begin MONITOR dynamic field statistics
(PID.TID 0000.0001) // =======================================================
(PID.TID 0000.0001) %MON time_tsnumber                =                    21
(PID.TID 0000.0001) %MON time_secondsf                =   7.5600000000000E+04
(PID.TID 0000.0001) %MON dynstat_eta_max              =   5.3141574854249E-03
(PID.TID 0000.0001) %MON dynstat_eta_min              =  -5.4062543505861E-03
(PID.TID 0000.0001) %MON dynstat_eta_mean             =   9.7990268841386E-19
(PID.TID 0000.0001) %MON dynstat_eta_sd               =   3.5117946837978E-03
(PID.TID 0000.0001) %MON dynstat_eta_del2             =   6.0477811101330E-04
(PID.TID 0000.0001) %MON dynstat_uvel_max             =   9.4840562456512E-03
(PID.TID 0000.0001) %MON dynstat_uvel_min             =   5.6106838054761E-04
(PID.TID 0000.0001) %MON dynstat_uvel_mean            =   1.4025634669109E-03
(PID.TID 0000.0001) %MON dynstat_uvel_sd              =   9.9596319236440E-04
(PID.TID 0000.0001) %MON dynstat_uvel_del2            =   3.0515599539919E-04
(PID.TID 0000.0001) %MON dynstat_vvel_max             =   2.3953565302268E-02
(PID.TID 0000.0001) %MON dynstat_vvel_min             =  -2.0240636170278E-03
(PID.TID 0000.0001) %MON dynstat_vvel_mean            =   1.7515705378791E-06
(PID.TID 0000.0001) %MON dynstat_vvel_sd              =   2.9188968082813E-03
(PID.TID 0000.0001) %MON dynstat_vvel_del2            =   2.1918594088827E-03
(PID.TID 0000.0001) %MON dynstat_wvel_max             =   1.3506897637510E-05
(PID.TID 0000.0001) %MON dynstat_wvel_min             =  -1.3862837131795E-05
(PID.TID 0000.0001) %MON dynstat_wvel_mean            =  -2.9727483966521E-23
(PID.TID 0000.0001) %MON dynstat_wvel_sd              =   1.0988235617862E-05
(PID.TID 0000.0001) %MON dynstat_wvel_del2            =   6.6744875259844E-06
(PID.TID 0000.0001) %MON dynstat_theta_max            =   4.0000000000000E+00
(PID.TID 0000.0001) %MON dynstat_theta_min            =   4.0000000000000E+00
(PID.TID 0000.0001) %MON dynstat_theta_mean           =   4.0000000000000E+00
(PID.TID 0000.0001) %MON dynstat_theta_sd             =   0.0000000000000E+00
(PID.TID 0000.0001) %MON dynstat_theta_del2           =   0.0000000000000E+00
(PID.TID 0000.0001) %MON dynstat_salt_max             =   3.5000000000000E+01
(PID.TID 0000.0001) %MON dynstat_salt_min             =   3.5000000000000E+01
(PID.TID 0000.0001) %MON dynstat_salt_mean            =   3.5000000000000E+01
(PID.TID 0000.0001) %MON dynstat_salt_sd              =   0.0000000000000E+00
(PID.TID 0000.0001) %MON dynstat_salt_del2            =   0.0000000000000E+00
(PID.TID 0000.0001) %MON advcfl_uvel_max              =   1.7071301242172E-04
(PID.TID 0000.0001) %MON advcfl_vvel_max              =   4.3116417544082E-04
(PID.TID 0000.0001) %MON advcfl_wvel_max              =   1.9921406935933E-04
(PID.TID 0000.0001) %MON advcfl_W_hf_max              =   9.9607034679665E-04
(PID.TID 0000.0001) %MON pe_b_mean                    =   1.3745298824177E-08
(PID.TID 0000.0001) %MON ke_max                       =   1.7940826825675E-04
(PID.TID 0000.0001) %MON ke_mean                      =   4.6745490966516E-06
(PID.TID 0000.0001) %MON ke_vol                       =   3.5207326431489E+15
(PID.TID 0000.0001) %MON vort_r_min                   =  -4.4474552482096E-08
(PID.TID 0000.0001) %MON vort_r_max                   =   4.7420281228256E-08
(PID.TID 0000.0001) %MON vort_a_mean                  =  -1.1390240000000E-04
(PID.TID 0000.0001) %MON vort_a_sd                    =   3.7020595064181E-06
(PID.TID 0000.0001) %MON vort_p_mean                  =  -2.2184161870152E-04
(PID.TID 0000.0001) %MON vort_p_sd                    =   1.8699591101266E-04
(PID.TID 0000.0001) %MON surfExpan_theta_mean         =  -4.4337866711430E-22
(PID.TID 0000.0001) %MON surfExpan_salt_mean          =  -3.8407321767409E-21
(PID.TID 0000.0001) // =======================================================
(PID.TID 0000.0001) // End MONITOR dynamic field statistics
(PID.TID 0000.0001) // =======================================================
 cg2d: Sum(rhs),rhsMax =  -3.53883589099269E-16  3.79264045504640E-02
(PID.TID 0000.0001)                    cg2d_init_res =    1.29945950164521E-01
(PID.TID 0000.0001)                       cg2d_iters =    17
(PID.TID 0000.0001)                         cg2d_res =    1.80132991996524E-14
(PID.TID 0000.0001) // =======================================================
(PID.TID 0000.0001) // Begin MONITOR dynamic field statistics
(PID.TID 0000.0001) // =======================================================
(PID.TID 0000.0001) %MON time_tsnumber                =                    22
(PID.TID 0000.0001) %MON time_secondsf                =   7.9200000000000E+04
(PID.TID 0000.0001) %MON dynstat_eta_max              =   5.5002799159009E-03
(PID.TID 0000.0001) %MON dynstat_eta_min              =  -5.5973951920375E-03
(PID.TID 0000.0001) %MON dynstat_eta_mean             =   8.0736353993416E-19
(PID.TID 0000.0001) %MON dynstat_eta_sd               =   3.6142561083621E-03
(PID.TID 0000.0001) %MON dynstat_eta_del2             =   6.3394657604521E-04
(PID.TID 0000.0001) %MON dynstat_uvel_max             =   8.4238511970207E-03
(PID.TID 0000.0001) %MON dynstat_uvel_min             =   4.6363622225326E-04
(PID.TID 0000.0001) %MON dynstat_uvel_mean            =   1.4429625280000E-03
(PID.TID 0000.0001) %MON dynstat_uvel_sd              =   8.2900337379844E-04
(PID.TID 0000.0001) %MON dynstat_uvel_del2            =   3.0801602552266E-04
(PID.TID 0000.0001) %MON dynstat_vvel_max             =   2.5452159669966E-02
(PID.TID 0000.0001) %MON dynstat_vvel_min             =  -1.1557011726664E-03
(PID.TID 0000.0001) %MON dynstat_vvel_mean            =   1.5787462127106E-06
(PID.TID 0000.0001) %MON dynstat_vvel_sd              =   3.0900597603454E-03
(PID.TID 0000.0001) %MON dynstat_vvel_del2            =   2.1225694773191E-03
(PID.TID 0000.0001) %MON dynstat_wvel_max             =   1.4020764321658E-05
(PID.TID 0000.0001) %MON dynstat_wvel_min             =  -1.3624381691932E-05
(PID.TID 0000.0001) %MON dynstat_wvel_mean            =   1.0144763759204E-23
(PID.TID 0000.0001) %MON dynstat_wvel_sd              =   1.1168379659318E-05
(PID.TID 0000.0001) %MON dynstat_wvel_del2            =   6.6478505035458E-06
(PID.TID 0000.0001) %MON dynstat_theta_max            =   4.0000000000000E+00
(PID.TID 0000.0001) %MON dynstat_theta_min            =   4.0000000000000E+00
(PID.TID 0000.0001) %MON dynstat_theta_mean           =   4.0000000000000E+00
(PID.TID 0000.0001) %MON dynstat_theta_sd             =   0.0000000000000E+00
(PID.TID 0000.0001) %MON dynstat_theta_del2           =   0.0000000000000E+00
(PID.TID 0000.0001) %MON dynstat_salt_max             =   3.5000000000000E+01
(PID.TID 0000.0001) %MON dynstat_salt_min             =   3.5000000000000E+01
(PID.TID 0000.0001) %MON dynstat_salt_mean            =   3.5000000000000E+01
(PID.TID 0000.0001) %MON dynstat_salt_sd              =   0.0000000000000E+00
(PID.TID 0000.0001) %MON dynstat_salt_del2            =   0.0000000000000E+00
(PID.TID 0000.0001) %MON advcfl_uvel_max              =   1.5162932154637E-04
(PID.TID 0000.0001) %MON advcfl_vvel_max              =   4.5813887405938E-04
(PID.TID 0000.0001) %MON advcfl_wvel_max              =   1.9586992880868E-04
(PID.TID 0000.0001) %MON advcfl_W_hf_max              =   9.7934964404339E-04
(PID.TID 0000.0001) %MON pe_b_mean                    =   1.4559075531792E-08
(PID.TID 0000.0001) %MON ke_max                       =   1.8602271400686E-04
(PID.TID 0000.0001) %MON ke_mean                      =   4.9653706560953E-06
(PID.TID 0000.0001) %MON ke_vol                       =   3.5207326431489E+15
(PID.TID 0000.0001) %MON vort_r_min                   =  -3.6949751413104E-08
(PID.TID 0000.0001) %MON vort_r_max                   =   4.2119255985103E-08
(PID.TID 0000.0001) %MON vort_a_mean                  =  -1.1390240000000E-04
(PID.TID 0000.0001) %MON vort_a_sd                    =   3.7019727452945E-06
(PID.TID 0000.0001) %MON vort_p_mean                  =  -2.2184161870152E-04
(PID.TID 0000.0001) %MON vort_p_sd                    =   1.8699592677225E-04
(PID.TID 0000.0001) %MON surfExpan_theta_mean         =   1.0788880899781E-21
(PID.TID 0000.0001) %MON surfExpan_salt_mean          =   9.1850926864367E-21
(PID.TID 0000.0001) // =======================================================
(PID.TID 0000.0001) // End MONITOR dynamic field statistics
(PID.TID 0000.0001) // =======================================================
 cg2d: Sum(rhs),rhsMax =  -1.45716771982052E-16  3.91358858388561E-02
(PID.TID 0000.0001)                    cg2d_init_res =    1.23481878919227E-01
(PID.TID 0000.0001)                       cg2d_iters =    17
(PID.TID 0000.0001)                         cg2d_res =    8.83182636017924E-15
(PID.TID 0000.0001) // =======================================================
(PID.TID 0000.0001) // Begin MONITOR dynamic field statistics
(PID.TID 0000.0001) // =======================================================
(PID.TID 0000.0001) %MON time_tsnumber                =                    23
(PID.TID 0000.0001) %MON time_secondsf                =   8.2800000000000E+04
(PID.TID 0000.0001) %MON dynstat_eta_max              =   5.6766696007591E-03
(PID.TID 0000.0001) %MON dynstat_eta_min              =  -5.7785676157538E-03
(PID.TID 0000.0001) %MON dynstat_eta_mean             =   6.6517386585474E-19
(PID.TID 0000.0001) %MON dynstat_eta_sd               =   3.7082142940666E-03
(PID.TID 0000.0001) %MON dynstat_eta_del2             =   6.6252203586740E-04
(PID.TID 0000.0001) %MON dynstat_uvel_max             =   7.1890060082781E-03
(PID.TID 0000.0001) %MON dynstat_uvel_min             =   3.2122814260101E-04
(PID.TID 0000.0001) %MON dynstat_uvel_mean            =   1.4802441543176E-03
(PID.TID 0000.0001) %MON dynstat_uvel_sd              =   6.6511907732523E-04
(PID.TID 0000.0001) %MON dynstat_uvel_del2            =   3.2802491554886E-04
(PID.TID 0000.0001) %MON dynstat_vvel_max             =   2.6146206617149E-02
(PID.TID 0000.0001) %MON dynstat_vvel_min             =  -1.2215943568405E-03
(PID.TID 0000.0001) %MON dynstat_vvel_mean            =   1.4019530970997E-06
(PID.TID 0000.0001) %MON dynstat_vvel_sd              =   3.1800865213242E-03
(PID.TID 0000.0001) %MON dynstat_vvel_del2            =   2.0621314303183E-03
(PID.TID 0000.0001) %MON dynstat_wvel_max             =   1.4620261233709E-05
(PID.TID 0000.0001) %MON dynstat_wvel_min             =  -1.4192962400501E-05
(PID.TID 0000.0001) %MON dynstat_wvel_mean            =  -1.3612277273621E-22
(PID.TID 0000.0001) %MON dynstat_wvel_sd              =   1.1190540141773E-05
(PID.TID 0000.0001) %MON dynstat_wvel_del2            =   6.5624934142522E-06
(PID.TID 0000.0001) %MON dynstat_theta_max            =   4.0000000000000E+00
(PID.TID 0000.0001) %MON dynstat_theta_min            =   4.0000000000000E+00
(PID.TID 0000.0001) %MON dynstat_theta_mean           =   4.0000000000000E+00
(PID.TID 0000.0001) %MON dynstat_theta_sd             =   0.0000000000000E+00
(PID.TID 0000.0001) %MON dynstat_theta_del2           =   0.0000000000000E+00
(PID.TID 0000.0001) %MON dynstat_salt_max             =   3.5000000000000E+01
(PID.TID 0000.0001) %MON dynstat_salt_min             =   3.5000000000000E+01
(PID.TID 0000.0001) %MON dynstat_salt_mean            =   3.5000000000000E+01
(PID.TID 0000.0001) %MON dynstat_salt_sd              =   0.0000000000000E+00
(PID.TID 0000.0001) %MON dynstat_salt_del2            =   0.0000000000000E+00
(PID.TID 0000.0001) %MON advcfl_uvel_max              =   1.2940210814901E-04
(PID.TID 0000.0001) %MON advcfl_vvel_max              =   4.7063171910868E-04
(PID.TID 0000.0001) %MON advcfl_wvel_max              =   1.9223555780784E-04
(PID.TID 0000.0001) %MON advcfl_W_hf_max              =   9.6117778903919E-04
(PID.TID 0000.0001) %MON pe_b_mean                    =   1.5325886292679E-08
(PID.TID 0000.0001) %MON ke_max                       =   1.8507311375051E-04
(PID.TID 0000.0001) %MON ke_mean                      =   5.1091101649244E-06
(PID.TID 0000.0001) %MON ke_vol                       =   3.5207326431489E+15
(PID.TID 0000.0001) %MON vort_r_min                   =  -2.8412623808289E-08
(PID.TID 0000.0001) %MON vort_r_max                   =   3.5945030041391E-08
(PID.TID 0000.0001) %MON vort_a_mean                  =  -1.1390240000000E-04
(PID.TID 0000.0001) %MON vort_a_sd                    =   3.7018896646872E-06
(PID.TID 0000.0001) %MON vort_p_mean                  =  -2.2184161870152E-04
(PID.TID 0000.0001) %MON vort_p_sd                    =   1.8699594531645E-04
(PID.TID 0000.0001) %MON surfExpan_theta_mean         =  -6.9348971010186E-22
(PID.TID 0000.0001) %MON surfExpan_salt_mean          =  -5.2969495456523E-21
(PID.TID 0000.0001) // =======================================================
(PID.TID 0000.0001) // End MONITOR dynamic field statistics
(PID.TID 0000.0001) // =======================================================
 cg2d: Sum(rhs),rhsMax =  -1.80411241501588E-16  4.02913639261801E-02
(PID.TID 0000.0001)                    cg2d_init_res =    1.16475737330592E-01
(PID.TID 0000.0001)                       cg2d_iters =    16
(PID.TID 0000.0001)                         cg2d_res =    5.73647395710479E-14
(PID.TID 0000.0001) // =======================================================
(PID.TID 0000.0001) // Begin MONITOR dynamic field statistics
(PID.TID 0000.0001) // =======================================================
(PID.TID 0000.0001) %MON time_tsnumber                =                    24
(PID.TID 0000.0001) %MON time_secondsf                =   8.6400000000000E+04
(PID.TID 0000.0001) %MON dynstat_eta_max              =   5.8413777089325E-03
(PID.TID 0000.0001) %MON dynstat_eta_min              =  -5.9475247243067E-03
(PID.TID 0000.0001) %MON dynstat_eta_mean             =   2.3019034415483E-18
(PID.TID 0000.0001) %MON dynstat_eta_sd               =   3.7934110894752E-03
(PID.TID 0000.0001) %MON dynstat_eta_del2             =   6.9022809286342E-04
(PID.TID 0000.0001) %MON dynstat_uvel_max             =   5.9148598815618E-03
(PID.TID 0000.0001) %MON dynstat_uvel_min             =  -1.5149883698614E-05
(PID.TID 0000.0001) %MON dynstat_uvel_mean            =   1.5142337574817E-03
(PID.TID 0000.0001) %MON dynstat_uvel_sd              =   5.9529888057078E-04
(PID.TID 0000.0001) %MON dynstat_uvel_del2            =   3.6351790851615E-04
(PID.TID 0000.0001) %MON dynstat_vvel_max             =   2.5964029113349E-02
(PID.TID 0000.0001) %MON dynstat_vvel_min             =  -1.2615836656471E-03
(PID.TID 0000.0001) %MON dynstat_vvel_mean            =   1.2229303782628E-06
(PID.TID 0000.0001) %MON dynstat_vvel_sd              =   3.1705854913931E-03
(PID.TID 0000.0001) %MON dynstat_vvel_del2            =   2.0198217531005E-03
(PID.TID 0000.0001) %MON dynstat_wvel_max             =   1.4679379978758E-05
(PID.TID 0000.0001) %MON dynstat_wvel_min             =  -1.4346068752864E-05
(PID.TID 0000.0001) %MON dynstat_wvel_mean            =   1.7711759677955E-23
(PID.TID 0000.0001) %MON dynstat_wvel_sd              =   1.1013879784893E-05
(PID.TID 0000.0001) %MON dynstat_wvel_del2            =   6.4250213881366E-06
(PID.TID 0000.0001) %MON dynstat_theta_max            =   4.0000000000000E+00
(PID.TID 0000.0001) %MON dynstat_theta_min            =   4.0000000000000E+00
(PID.TID 0000.0001) %MON dynstat_theta_mean           =   4.0000000000000E+00
(PID.TID 0000.0001) %MON dynstat_theta_sd             =   0.0000000000000E+00
(PID.TID 0000.0001) %MON dynstat_theta_del2           =   0.0000000000000E+00
(PID.TID 0000.0001) %MON dynstat_salt_max             =   3.5000000000000E+01
(PID.TID 0000.0001) %MON dynstat_salt_min             =   3.5000000000000E+01
(PID.TID 0000.0001) %MON dynstat_salt_mean            =   3.5000000000000E+01
(PID.TID 0000.0001) %MON dynstat_salt_sd              =   0.0000000000000E+00
(PID.TID 0000.0001) %MON dynstat_salt_del2            =   0.0000000000000E+00
(PID.TID 0000.0001) %MON advcfl_uvel_max              =   1.0646747786811E-04
(PID.TID 0000.0001) %MON advcfl_vvel_max              =   4.6735252404028E-04
(PID.TID 0000.0001) %MON advcfl_wvel_max              =   1.8933213427761E-04
(PID.TID 0000.0001) %MON advcfl_W_hf_max              =   9.4666067138806E-04
(PID.TID 0000.0001) %MON pe_b_mean                    =   1.6038205383237E-08
(PID.TID 0000.0001) %MON ke_max                       =   1.7732390296613E-04
(PID.TID 0000.0001) %MON ke_mean                      =   5.0933725099245E-06
(PID.TID 0000.0001) %MON ke_vol                       =   3.5207326431489E+15
(PID.TID 0000.0001) %MON vort_r_min                   =  -3.1253402674803E-08
(PID.TID 0000.0001) %MON vort_r_max                   =   2.9574299407809E-08
(PID.TID 0000.0001) %MON vort_a_mean                  =  -1.1390240000000E-04
(PID.TID 0000.0001) %MON vort_a_sd                    =   3.7018075641098E-06
(PID.TID 0000.0001) %MON vort_p_mean                  =  -2.2184161870152E-04
(PID.TID 0000.0001) %MON vort_p_sd                    =   1.8699596070654E-04
(PID.TID 0000.0001) %MON surfExpan_theta_mean         =   1.8360424292041E-22
(PID.TID 0000.0001) %MON surfExpan_salt_mean          =   1.7218892978121E-21
(PID.TID 0000.0001) // =======================================================
(PID.TID 0000.0001) // End MONITOR dynamic field statistics
(PID.TID 0000.0001) // =======================================================
 cg2d: Sum(rhs),rhsMax =  -8.18789480661053E-16  4.13506294670109E-02
(PID.TID 0000.0001)                    cg2d_init_res =    1.09399837389353E-01
(PID.TID 0000.0001)                       cg2d_iters =    17
(PID.TID 0000.0001)                         cg2d_res =    1.44038448667186E-14
(PID.TID 0000.0001) // =======================================================
(PID.TID 0000.0001) // Begin MONITOR dynamic field statistics
(PID.TID 0000.0001) // =======================================================
(PID.TID 0000.0001) %MON time_tsnumber                =                    25
(PID.TID 0000.0001) %MON time_secondsf                =   9.0000000000000E+04
(PID.TID 0000.0001) %MON dynstat_eta_max              =   5.9925884710070E-03
(PID.TID 0000.0001) %MON dynstat_eta_min              =  -6.1021719773800E-03
(PID.TID 0000.0001) %MON dynstat_eta_mean             =   2.7620466426015E-18
(PID.TID 0000.0001) %MON dynstat_eta_sd               =   3.8697116453020E-03
(PID.TID 0000.0001) %MON dynstat_eta_del2             =   7.1683507572149E-04
(PID.TID 0000.0001) %MON dynstat_uvel_max             =   4.7414085961555E-03
(PID.TID 0000.0001) %MON dynstat_uvel_min             =  -1.8117170203716E-03
(PID.TID 0000.0001) %MON dynstat_uvel_mean            =   1.5447857759512E-03
(PID.TID 0000.0001) %MON dynstat_uvel_sd              =   6.5443147210530E-04
(PID.TID 0000.0001) %MON dynstat_uvel_del2            =   3.9991152490989E-04
(PID.TID 0000.0001) %MON dynstat_vvel_max             =   2.4962816566239E-02
(PID.TID 0000.0001) %MON dynstat_vvel_min             =  -1.2828838547689E-03
(PID.TID 0000.0001) %MON dynstat_vvel_mean            =   1.0435921716517E-06
(PID.TID 0000.0001) %MON dynstat_vvel_sd              =   3.0648491956154E-03
(PID.TID 0000.0001) %MON dynstat_vvel_del2            =   1.9915728803926E-03
(PID.TID 0000.0001) %MON dynstat_wvel_max             =   1.4196994116384E-05
(PID.TID 0000.0001) %MON dynstat_wvel_min             =  -1.4071571992658E-05
(PID.TID 0000.0001) %MON dynstat_wvel_mean            =   8.1989648086684E-23
(PID.TID 0000.0001) %MON dynstat_wvel_sd              =   1.0636783466200E-05
(PID.TID 0000.0001) %MON dynstat_wvel_del2            =   6.2374254338885E-06
(PID.TID 0000.0001) %MON dynstat_theta_max            =   4.0000000000000E+00
(PID.TID 0000.0001) %MON dynstat_theta_min            =   4.0000000000000E+00
(PID.TID 0000.0001) %MON dynstat_theta_mean           =   4.0000000000000E+00
(PID.TID 0000.0001) %MON dynstat_theta_sd             =   0.0000000000000E+00
(PID.TID 0000.0001) %MON dynstat_theta_del2           =   0.0000000000000E+00
(PID.TID 0000.0001) %MON dynstat_salt_max             =   3.5000000000000E+01
(PID.TID 0000.0001) %MON dynstat_salt_min             =   3.5000000000000E+01
(PID.TID 0000.0001) %MON dynstat_salt_mean            =   3.5000000000000E+01
(PID.TID 0000.0001) %MON dynstat_salt_sd              =   0.0000000000000E+00
(PID.TID 0000.0001) %MON dynstat_salt_del2            =   0.0000000000000E+00
(PID.TID 0000.0001) %MON advcfl_uvel_max              =   8.5345354730800E-05
(PID.TID 0000.0001) %MON advcfl_vvel_max              =   4.4933069819231E-04
(PID.TID 0000.0001) %MON advcfl_wvel_max              =   1.8563729116058E-04
(PID.TID 0000.0001) %MON advcfl_W_hf_max              =   9.2818645580289E-04
(PID.TID 0000.0001) %MON pe_b_mean                    =   1.6689877943710E-08
(PID.TID 0000.0001) %MON ke_max                       =   1.6346542420453E-04
(PID.TID 0000.0001) %MON ke_mean                      =   4.9298099529874E-06
(PID.TID 0000.0001) %MON ke_vol                       =   3.5207326431489E+15
(PID.TID 0000.0001) %MON vort_r_min                   =  -3.4679340851749E-08
(PID.TID 0000.0001) %MON vort_r_max                   =   2.3707042980778E-08
(PID.TID 0000.0001) %MON vort_a_mean                  =  -1.1390240000000E-04
(PID.TID 0000.0001) %MON vort_a_sd                    =   3.7017236633704E-06
(PID.TID 0000.0001) %MON vort_p_mean                  =  -2.2184161870152E-04
(PID.TID 0000.0001) %MON vort_p_sd                    =   1.8699596731118E-04
(PID.TID 0000.0001) %MON surfExpan_theta_mean         =  -2.7512214728631E-22
(PID.TID 0000.0001) %MON surfExpan_salt_mean          =  -2.2502755214759E-21
(PID.TID 0000.0001) // =======================================================
(PID.TID 0000.0001) // End MONITOR dynamic field statistics
(PID.TID 0000.0001) // =======================================================
 cg2d: Sum(rhs),rhsMax =  -2.22044604925031E-16  4.22726606684742E-02
(PID.TID 0000.0001)                    cg2d_init_res =    1.02789524953812E-01
(PID.TID 0000.0001)                       cg2d_iters =    17
(PID.TID 0000.0001)                         cg2d_res =    2.13522004679517E-14
(PID.TID 0000.0001) // =======================================================
(PID.TID 0000.0001) // Begin MONITOR dynamic field statistics
(PID.TID 0000.0001) // =======================================================
(PID.TID 0000.0001) %MON time_tsnumber                =                    26
(PID.TID 0000.0001) %MON time_secondsf                =   9.3600000000000E+04
(PID.TID 0000.0001) %MON dynstat_eta_max              =   6.1288699861265E-03
(PID.TID 0000.0001) %MON dynstat_eta_min              =  -6.2408513845503E-03
(PID.TID 0000.0001) %MON dynstat_eta_mean             =   7.0740934461355E-19
(PID.TID 0000.0001) %MON dynstat_eta_sd               =   3.9371242645401E-03
(PID.TID 0000.0001) %MON dynstat_eta_del2             =   7.4218822001816E-04
(PID.TID 0000.0001) %MON dynstat_uvel_max             =   3.7925310803191E-03
(PID.TID 0000.0001) %MON dynstat_uvel_min             =  -3.1610110350331E-03
(PID.TID 0000.0001) %MON dynstat_uvel_mean            =   1.5718028596508E-03
(PID.TID 0000.0001) %MON dynstat_uvel_sd              =   7.6492303753332E-04
(PID.TID 0000.0001) %MON dynstat_uvel_del2            =   4.2432742949043E-04
(PID.TID 0000.0001) %MON dynstat_vvel_max             =   2.3670832986471E-02
(PID.TID 0000.0001) %MON dynstat_vvel_min             =  -1.2939791444075E-03
(PID.TID 0000.0001) %MON dynstat_vvel_mean            =   8.6579104884108E-07
(PID.TID 0000.0001) %MON dynstat_vvel_sd              =   2.8858702462933E-03
(PID.TID 0000.0001) %MON dynstat_vvel_del2            =   1.9743783978632E-03
(PID.TID 0000.0001) %MON dynstat_wvel_max             =   1.3249476781513E-05
(PID.TID 0000.0001) %MON dynstat_wvel_min             =  -1.3419438941992E-05
(PID.TID 0000.0001) %MON dynstat_wvel_mean            =   7.6085728194032E-24
(PID.TID 0000.0001) %MON dynstat_wvel_sd              =   1.0098428001500E-05
(PID.TID 0000.0001) %MON dynstat_wvel_del2            =   6.0077710843895E-06
(PID.TID 0000.0001) %MON dynstat_theta_max            =   4.0000000000000E+00
(PID.TID 0000.0001) %MON dynstat_theta_min            =   4.0000000000000E+00
(PID.TID 0000.0001) %MON dynstat_theta_mean           =   4.0000000000000E+00
(PID.TID 0000.0001) %MON dynstat_theta_sd             =   0.0000000000000E+00
(PID.TID 0000.0001) %MON dynstat_theta_del2           =   0.0000000000000E+00
(PID.TID 0000.0001) %MON dynstat_salt_max             =   3.5000000000000E+01
(PID.TID 0000.0001) %MON dynstat_salt_min             =   3.5000000000000E+01
(PID.TID 0000.0001) %MON dynstat_salt_mean            =   3.5000000000000E+01
(PID.TID 0000.0001) %MON dynstat_salt_sd              =   0.0000000000000E+00
(PID.TID 0000.0001) %MON dynstat_salt_del2            =   0.0000000000000E+00
(PID.TID 0000.0001) %MON advcfl_uvel_max              =   6.8265559445744E-05
(PID.TID 0000.0001) %MON advcfl_vvel_max              =   4.2607499375648E-04
(PID.TID 0000.0001) %MON advcfl_wvel_max              =   1.8922447368633E-04
(PID.TID 0000.0001) %MON advcfl_W_hf_max              =   9.1461610132095E-04
(PID.TID 0000.0001) %MON pe_b_mean                    =   1.7276437621024E-08
(PID.TID 0000.0001) %MON ke_max                       =   1.4554880352669E-04
(PID.TID 0000.0001) %MON ke_mean                      =   4.6509286769909E-06
(PID.TID 0000.0001) %MON ke_vol                       =   3.5207326431489E+15
(PID.TID 0000.0001) %MON vort_r_min                   =  -3.7078407230961E-08
(PID.TID 0000.0001) %MON vort_r_max                   =   2.2978747558133E-08
(PID.TID 0000.0001) %MON vort_a_mean                  =  -1.1390240000000E-04
(PID.TID 0000.0001) %MON vort_a_sd                    =   3.7016355806207E-06
(PID.TID 0000.0001) %MON vort_p_mean                  =  -2.2184161870152E-04
(PID.TID 0000.0001) %MON vort_p_sd                    =   1.8699596060762E-04
(PID.TID 0000.0001) %MON surfExpan_theta_mean         =  -8.4639850683743E-22
(PID.TID 0000.0001) %MON surfExpan_salt_mean          =  -6.0839622229025E-21
(PID.TID 0000.0001) // =======================================================
(PID.TID 0000.0001) // End MONITOR dynamic field statistics
(PID.TID 0000.0001) // =======================================================
 cg2d: Sum(rhs),rhsMax =  -2.08166817117217E-16  4.30239435265244E-02
(PID.TID 0000.0001)                    cg2d_init_res =    9.71285630208708E-02
(PID.TID 0000.0001)                       cg2d_iters =    17
(PID.TID 0000.0001)                         cg2d_res =    2.24905415353016E-14
(PID.TID 0000.0001) // =======================================================
(PID.TID 0000.0001) // Begin MONITOR dynamic field statistics
(PID.TID 0000.0001) // =======================================================
(PID.TID 0000.0001) %MON time_tsnumber                =                    27
(PID.TID 0000.0001) %MON time_secondsf                =   9.7200000000000E+04
(PID.TID 0000.0001) %MON dynstat_eta_max              =   6.2493582453785E-03
(PID.TID 0000.0001) %MON dynstat_eta_min              =  -6.3625609692783E-03
(PID.TID 0000.0001) %MON dynstat_eta_mean             =   7.2901602834463E-19
(PID.TID 0000.0001) %MON dynstat_eta_sd               =   3.9958062618274E-03
(PID.TID 0000.0001) %MON dynstat_eta_del2             =   7.6622375169822E-04
(PID.TID 0000.0001) %MON dynstat_uvel_max             =   3.2022618518001E-03
(PID.TID 0000.0001) %MON dynstat_uvel_min             =  -3.8583729466875E-03
(PID.TID 0000.0001) %MON dynstat_uvel_mean            =   1.5952485633752E-03
(PID.TID 0000.0001) %MON dynstat_uvel_sd              =   8.4658563889775E-04
(PID.TID 0000.0001) %MON dynstat_uvel_del2            =   4.3095763150334E-04
(PID.TID 0000.0001) %MON dynstat_vvel_max             =   2.2144100297739E-02
(PID.TID 0000.0001) %MON dynstat_vvel_min             =  -1.5886585070185E-03
(PID.TID 0000.0001) %MON dynstat_vvel_mean            =   6.9109726936718E-07
(PID.TID 0000.0001) %MON dynstat_vvel_sd              =   2.6699699573195E-03
(PID.TID 0000.0001) %MON dynstat_vvel_del2            =   1.9624990360199E-03
(PID.TID 0000.0001) %MON dynstat_wvel_max             =   1.2760912938495E-05
(PID.TID 0000.0001) %MON dynstat_wvel_min             =  -1.2532201913780E-05
(PID.TID 0000.0001) %MON dynstat_wvel_mean            =   7.1096500115735E-24
(PID.TID 0000.0001) %MON dynstat_wvel_sd              =   9.4667390793546E-06
(PID.TID 0000.0001) %MON dynstat_wvel_del2            =   5.7466401403259E-06
(PID.TID 0000.0001) %MON dynstat_theta_max            =   4.0000000000000E+00
(PID.TID 0000.0001) %MON dynstat_theta_min            =   4.0000000000000E+00
(PID.TID 0000.0001) %MON dynstat_theta_mean           =   4.0000000000000E+00
(PID.TID 0000.0001) %MON dynstat_theta_sd             =   0.0000000000000E+00
(PID.TID 0000.0001) %MON dynstat_theta_del2           =   0.0000000000000E+00
(PID.TID 0000.0001) %MON dynstat_salt_max             =   3.5000000000000E+01
(PID.TID 0000.0001) %MON dynstat_salt_min             =   3.5000000000000E+01
(PID.TID 0000.0001) %MON dynstat_salt_mean            =   3.5000000000000E+01
(PID.TID 0000.0001) %MON dynstat_salt_sd              =   0.0000000000000E+00
(PID.TID 0000.0001) %MON dynstat_salt_del2            =   0.0000000000000E+00
(PID.TID 0000.0001) %MON advcfl_uvel_max              =   6.9450713040375E-05
(PID.TID 0000.0001) %MON advcfl_vvel_max              =   3.9859380535930E-04
(PID.TID 0000.0001) %MON advcfl_wvel_max              =   2.0033431609573E-04
(PID.TID 0000.0001) %MON advcfl_W_hf_max              =   9.1878573157161E-04
(PID.TID 0000.0001) %MON pe_b_mean                    =   1.7795278862289E-08
(PID.TID 0000.0001) %MON ke_max                       =   1.2824664276257E-04
(PID.TID 0000.0001) %MON ke_mean                      =   4.3040401304459E-06
(PID.TID 0000.0001) %MON ke_vol                       =   3.5207326431489E+15
(PID.TID 0000.0001) %MON vort_r_min                   =  -3.7881523555557E-08
(PID.TID 0000.0001) %MON vort_r_max                   =   2.3234640789545E-08
(PID.TID 0000.0001) %MON vort_a_mean                  =  -1.1390240000000E-04
(PID.TID 0000.0001) %MON vort_a_sd                    =   3.7015417617347E-06
(PID.TID 0000.0001) %MON vort_p_mean                  =  -2.2184161870152E-04
(PID.TID 0000.0001) %MON vort_p_sd                    =   1.8699593782135E-04
(PID.TID 0000.0001) %MON surfExpan_theta_mean         =   3.6806113712373E-22
(PID.TID 0000.0001) %MON surfExpan_salt_mean          =   2.5820778848384E-21
(PID.TID 0000.0001) // =======================================================
(PID.TID 0000.0001) // End MONITOR dynamic field statistics
(PID.TID 0000.0001) // =======================================================
 cg2d: Sum(rhs),rhsMax =  -3.88578058618805E-16  4.35835862263463E-02
(PID.TID 0000.0001)                    cg2d_init_res =    9.27522360694069E-02
(PID.TID 0000.0001)                       cg2d_iters =    17
(PID.TID 0000.0001)                         cg2d_res =    1.70709708654365E-14
(PID.TID 0000.0001) // =======================================================
(PID.TID 0000.0001) // Begin MONITOR dynamic field statistics
(PID.TID 0000.0001) // =======================================================
(PID.TID 0000.0001) %MON time_tsnumber                =                    28
(PID.TID 0000.0001) %MON time_secondsf                =   1.0080000000000E+05
(PID.TID 0000.0001) %MON dynstat_eta_max              =   6.3538496323041E-03
(PID.TID 0000.0001) %MON dynstat_eta_min              =  -6.4670756515801E-03
(PID.TID 0000.0001) %MON dynstat_eta_mean             =   9.6766743808985E-19
(PID.TID 0000.0001) %MON dynstat_eta_sd               =   4.0460518648736E-03
(PID.TID 0000.0001) %MON dynstat_eta_del2             =   7.8897054991837E-04
(PID.TID 0000.0001) %MON dynstat_uvel_max             =   3.2942163034535E-03
(PID.TID 0000.0001) %MON dynstat_uvel_min             =  -3.8179095126161E-03
(PID.TID 0000.0001) %MON dynstat_uvel_mean            =   1.6151517152470E-03
(PID.TID 0000.0001) %MON dynstat_uvel_sd              =   8.6653953433379E-04
(PID.TID 0000.0001) %MON dynstat_uvel_del2            =   4.1884371346182E-04
(PID.TID 0000.0001) %MON dynstat_vvel_max             =   2.0498269905996E-02
(PID.TID 0000.0001) %MON dynstat_vvel_min             =  -3.3371401668776E-03
(PID.TID 0000.0001) %MON dynstat_vvel_mean            =   5.2063455951821E-07
(PID.TID 0000.0001) %MON dynstat_vvel_sd              =   2.4569269874548E-03
(PID.TID 0000.0001) %MON dynstat_vvel_del2            =   1.9487961411419E-03
(PID.TID 0000.0001) %MON dynstat_wvel_max             =   1.2828461102014E-05
(PID.TID 0000.0001) %MON dynstat_wvel_min             =  -1.2361995043081E-05
(PID.TID 0000.0001) %MON dynstat_wvel_mean            =   1.0872359520623E-23
(PID.TID 0000.0001) %MON dynstat_wvel_sd              =   8.8168210276605E-06
(PID.TID 0000.0001) %MON dynstat_wvel_del2            =   5.4661733977295E-06
(PID.TID 0000.0001) %MON dynstat_theta_max            =   4.0000000000000E+00
(PID.TID 0000.0001) %MON dynstat_theta_min            =   4.0000000000000E+00
(PID.TID 0000.0001) %MON dynstat_theta_mean           =   4.0000000000000E+00
(PID.TID 0000.0001) %MON dynstat_theta_sd             =   0.0000000000000E+00
(PID.TID 0000.0001) %MON dynstat_theta_del2           =   0.0000000000000E+00
(PID.TID 0000.0001) %MON dynstat_salt_max             =   3.5000000000000E+01
(PID.TID 0000.0001) %MON dynstat_salt_min             =   3.5000000000000E+01
(PID.TID 0000.0001) %MON dynstat_salt_mean            =   3.5000000000000E+01
(PID.TID 0000.0001) %MON dynstat_salt_sd              =   0.0000000000000E+00
(PID.TID 0000.0001) %MON dynstat_salt_del2            =   0.0000000000000E+00
(PID.TID 0000.0001) %MON advcfl_uvel_max              =   6.8722371227089E-05
(PID.TID 0000.0001) %MON advcfl_vvel_max              =   3.6896885830794E-04
(PID.TID 0000.0001) %MON advcfl_wvel_max              =   2.1068092236501E-04
(PID.TID 0000.0001) %MON advcfl_W_hf_max              =   9.2364919934502E-04
(PID.TID 0000.0001) %MON pe_b_mean                    =   1.8245629126456E-08
(PID.TID 0000.0001) %MON ke_max                       =   1.1006527943902E-04
(PID.TID 0000.0001) %MON ke_mean                      =   3.9434868486934E-06
(PID.TID 0000.0001) %MON ke_vol                       =   3.5207326431489E+15
(PID.TID 0000.0001) %MON vort_r_min                   =  -3.6877853614534E-08
(PID.TID 0000.0001) %MON vort_r_max                   =   2.1760130773620E-08
(PID.TID 0000.0001) %MON vort_a_mean                  =  -1.1390240000000E-04
(PID.TID 0000.0001) %MON vort_a_sd                    =   3.7014417721023E-06
(PID.TID 0000.0001) %MON vort_p_mean                  =  -2.2184161870152E-04
(PID.TID 0000.0001) %MON vort_p_sd                    =   1.8699589830872E-04
(PID.TID 0000.0001) %MON surfExpan_theta_mean         =   5.4200199883780E-22
(PID.TID 0000.0001) %MON surfExpan_salt_mean          =   3.7285263765341E-21
(PID.TID 0000.0001) // =======================================================
(PID.TID 0000.0001) // End MONITOR dynamic field statistics
(PID.TID 0000.0001) // =======================================================
 cg2d: Sum(rhs),rhsMax =  -2.08166817117217E-16  4.39463978549371E-02
(PID.TID 0000.0001)                    cg2d_init_res =    8.97896450282701E-02
(PID.TID 0000.0001)                       cg2d_iters =    17
(PID.TID 0000.0001)                         cg2d_res =    2.14756945352575E-14
(PID.TID 0000.0001) // =======================================================
(PID.TID 0000.0001) // Begin MONITOR dynamic field statistics
(PID.TID 0000.0001) // =======================================================
(PID.TID 0000.0001) %MON time_tsnumber                =                    29
(PID.TID 0000.0001) %MON time_secondsf                =   1.0440000000000E+05
(PID.TID 0000.0001) %MON dynstat_eta_max              =   6.4427937865209E-03
(PID.TID 0000.0001) %MON dynstat_eta_min              =  -6.5549505431292E-03
(PID.TID 0000.0001) %MON dynstat_eta_mean             =   6.7772343754768E-19
(PID.TID 0000.0001) %MON dynstat_eta_sd               =   4.0882607621158E-03
(PID.TID 0000.0001) %MON dynstat_eta_del2             =   8.1053737541403E-04
(PID.TID 0000.0001) %MON dynstat_uvel_max             =   3.3708826507255E-03
(PID.TID 0000.0001) %MON dynstat_uvel_min             =  -3.0786361675886E-03
(PID.TID 0000.0001) %MON dynstat_uvel_mean            =   1.6316019722479E-03
(PID.TID 0000.0001) %MON dynstat_uvel_sd              =   8.2970099280286E-04
(PID.TID 0000.0001) %MON dynstat_uvel_del2            =   3.8861191773008E-04
(PID.TID 0000.0001) %MON dynstat_vvel_max             =   1.8961558325638E-02
(PID.TID 0000.0001) %MON dynstat_vvel_min             =  -4.8334922025866E-03
(PID.TID 0000.0001) %MON dynstat_vvel_mean            =   3.5499801646464E-07
(PID.TID 0000.0001) %MON dynstat_vvel_sd              =   2.2786576939847E-03
(PID.TID 0000.0001) %MON dynstat_vvel_del2            =   1.9267154404418E-03
(PID.TID 0000.0001) %MON dynstat_wvel_max             =   1.2835677851517E-05
(PID.TID 0000.0001) %MON dynstat_wvel_min             =  -1.2173303454883E-05
(PID.TID 0000.0001) %MON dynstat_wvel_mean            =  -1.6196281649172E-22
(PID.TID 0000.0001) %MON dynstat_wvel_sd              =   8.2078325260940E-06
(PID.TID 0000.0001) %MON dynstat_wvel_del2            =   5.1790633397855E-06
(PID.TID 0000.0001) %MON dynstat_theta_max            =   4.0000000000000E+00
(PID.TID 0000.0001) %MON dynstat_theta_min            =   4.0000000000000E+00
(PID.TID 0000.0001) %MON dynstat_theta_mean           =   4.0000000000000E+00
(PID.TID 0000.0001) %MON dynstat_theta_sd             =   0.0000000000000E+00
(PID.TID 0000.0001) %MON dynstat_theta_del2           =   0.0000000000000E+00
(PID.TID 0000.0001) %MON dynstat_salt_max             =   3.5000000000000E+01
(PID.TID 0000.0001) %MON dynstat_salt_min             =   3.5000000000000E+01
(PID.TID 0000.0001) %MON dynstat_salt_mean            =   3.5000000000000E+01
(PID.TID 0000.0001) %MON dynstat_salt_sd              =   0.0000000000000E+00
(PID.TID 0000.0001) %MON dynstat_salt_del2            =   0.0000000000000E+00
(PID.TID 0000.0001) %MON advcfl_uvel_max              =   6.0675887713058E-05
(PID.TID 0000.0001) %MON advcfl_vvel_max              =   3.4130804986149E-04
(PID.TID 0000.0001) %MON advcfl_wvel_max              =   2.2037982689352E-04
(PID.TID 0000.0001) %MON advcfl_W_hf_max              =   9.2416880530919E-04
(PID.TID 0000.0001) %MON pe_b_mean                    =   1.8628295955206E-08
(PID.TID 0000.0001) %MON ke_max                       =   9.3392304363740E-05
(PID.TID 0000.0001) %MON ke_mean                      =   3.6223697462929E-06
(PID.TID 0000.0001) %MON ke_vol                       =   3.5207326431489E+15
(PID.TID 0000.0001) %MON vort_r_min                   =  -3.4227422261443E-08
(PID.TID 0000.0001) %MON vort_r_max                   =   1.8718793615512E-08
(PID.TID 0000.0001) %MON vort_a_mean                  =  -1.1390240000000E-04
(PID.TID 0000.0001) %MON vort_a_sd                    =   3.7013363845352E-06
(PID.TID 0000.0001) %MON vort_p_mean                  =  -2.2184161870152E-04
(PID.TID 0000.0001) %MON vort_p_sd                    =   1.8699584362700E-04
(PID.TID 0000.0001) %MON surfExpan_theta_mean         =  -8.6501472651435E-22
(PID.TID 0000.0001) %MON surfExpan_salt_mean          =  -8.2666290479594E-21
(PID.TID 0000.0001) // =======================================================
(PID.TID 0000.0001) // End MONITOR dynamic field statistics
(PID.TID 0000.0001) // =======================================================
 cg2d: Sum(rhs),rhsMax =   1.38777878078145E-16  4.41234514687522E-02
(PID.TID 0000.0001)                    cg2d_init_res =    8.81612768753298E-02
(PID.TID 0000.0001)                       cg2d_iters =    17
(PID.TID 0000.0001)                         cg2d_res =    2.25532415673372E-14
(PID.TID 0000.0001) // =======================================================
(PID.TID 0000.0001) // Begin MONITOR dynamic field statistics
(PID.TID 0000.0001) // =======================================================
(PID.TID 0000.0001) %MON time_tsnumber                =                    30
(PID.TID 0000.0001) %MON time_secondsf                =   1.0800000000000E+05
(PID.TID 0000.0001) %MON dynstat_eta_max              =   6.5171937785949E-03
(PID.TID 0000.0001) %MON dynstat_eta_min              =  -6.6274068464594E-03
(PID.TID 0000.0001) %MON dynstat_eta_mean             =  -8.2121696323156E-19
(PID.TID 0000.0001) %MON dynstat_eta_sd               =   4.1228902831507E-03
(PID.TID 0000.0001) %MON dynstat_eta_del2             =   8.3108798334493E-04
(PID.TID 0000.0001) %MON dynstat_uvel_max             =   3.4331879801654E-03
(PID.TID 0000.0001) %MON dynstat_uvel_min             =  -1.7908289878481E-03
(PID.TID 0000.0001) %MON dynstat_uvel_mean            =   1.6447374608826E-03
(PID.TID 0000.0001) %MON dynstat_uvel_sd              =   7.7043066669689E-04
(PID.TID 0000.0001) %MON dynstat_uvel_del2            =   3.6532903568222E-04
(PID.TID 0000.0001) %MON dynstat_vvel_max             =   1.7729427977306E-02
(PID.TID 0000.0001) %MON dynstat_vvel_min             =  -5.7941810178667E-03
(PID.TID 0000.0001) %MON dynstat_vvel_mean            =   1.9426053935413E-07
(PID.TID 0000.0001) %MON dynstat_vvel_sd              =   2.1513305110429E-03
(PID.TID 0000.0001) %MON dynstat_vvel_del2            =   1.8910581697312E-03
(PID.TID 0000.0001) %MON dynstat_wvel_max             =   1.2740934384460E-05
(PID.TID 0000.0001) %MON dynstat_wvel_min             =  -1.1950099353915E-05
(PID.TID 0000.0001) %MON dynstat_wvel_mean            =   1.4387686470790E-22
(PID.TID 0000.0001) %MON dynstat_wvel_sd              =   7.6699247775241E-06
(PID.TID 0000.0001) %MON dynstat_wvel_del2            =   4.8974900596455E-06
(PID.TID 0000.0001) %MON dynstat_theta_max            =   4.0000000000000E+00
(PID.TID 0000.0001) %MON dynstat_theta_min            =   4.0000000000000E+00
(PID.TID 0000.0001) %MON dynstat_theta_mean           =   4.0000000000000E+00
(PID.TID 0000.0001) %MON dynstat_theta_sd             =   0.0000000000000E+00
(PID.TID 0000.0001) %MON dynstat_theta_del2           =   0.0000000000000E+00
(PID.TID 0000.0001) %MON dynstat_salt_max             =   3.5000000000000E+01
(PID.TID 0000.0001) %MON dynstat_salt_min             =   3.5000000000000E+01
(PID.TID 0000.0001) %MON dynstat_salt_mean            =   3.5000000000000E+01
(PID.TID 0000.0001) %MON dynstat_salt_sd              =   0.0000000000000E+00
(PID.TID 0000.0001) %MON dynstat_salt_del2            =   0.0000000000000E+00
(PID.TID 0000.0001) %MON advcfl_uvel_max              =   6.1797383642977E-05
(PID.TID 0000.0001) %MON advcfl_vvel_max              =   3.1912970359151E-04
(PID.TID 0000.0001) %MON advcfl_wvel_max              =   2.2965236302905E-04
(PID.TID 0000.0001) %MON advcfl_W_hf_max              =   9.1734727568113E-04
(PID.TID 0000.0001) %MON pe_b_mean                    =   1.8945213642276E-08
(PID.TID 0000.0001) %MON ke_max                       =   8.2662238396103E-05
(PID.TID 0000.0001) %MON ke_mean                      =   3.3849459907644E-06
(PID.TID 0000.0001) %MON ke_vol                       =   3.5207326431489E+15
(PID.TID 0000.0001) %MON vort_r_min                   =  -3.0414063515927E-08
(PID.TID 0000.0001) %MON vort_r_max                   =   1.7165939900827E-08
(PID.TID 0000.0001) %MON vort_a_mean                  =  -1.1390240000000E-04
(PID.TID 0000.0001) %MON vort_a_sd                    =   3.7012274438708E-06
(PID.TID 0000.0001) %MON vort_p_mean                  =  -2.2184161870152E-04
(PID.TID 0000.0001) %MON vort_p_sd                    =   1.8699577728550E-04
(PID.TID 0000.0001) %MON surfExpan_theta_mean         =   5.2366999625519E-22
(PID.TID 0000.0001) %MON surfExpan_salt_mean          =   4.8739974556344E-21
(PID.TID 0000.0001) // =======================================================
(PID.TID 0000.0001) // End MONITOR dynamic field statistics
(PID.TID 0000.0001) // =======================================================
 cg2d: Sum(rhs),rhsMax =   3.74700270810990E-16  4.41400962296584E-02
(PID.TID 0000.0001)                    cg2d_init_res =    8.76269022224939E-02
(PID.TID 0000.0001)                       cg2d_iters =    17
(PID.TID 0000.0001)                         cg2d_res =    2.05346955084514E-14
(PID.TID 0000.0001) // =======================================================
(PID.TID 0000.0001) // Begin MONITOR dynamic field statistics
(PID.TID 0000.0001) // =======================================================
(PID.TID 0000.0001) %MON time_tsnumber                =                    31
(PID.TID 0000.0001) %MON time_secondsf                =   1.1160000000000E+05
(PID.TID 0000.0001) %MON dynstat_eta_max              =   6.5784324229581E-03
(PID.TID 0000.0001) %MON dynstat_eta_min              =  -6.6861205529045E-03
(PID.TID 0000.0001) %MON dynstat_eta_mean             =  -1.2157019227743E-18
(PID.TID 0000.0001) %MON dynstat_eta_sd               =   4.1503988605110E-03
(PID.TID 0000.0001) %MON dynstat_eta_del2             =   8.5080838122489E-04
(PID.TID 0000.0001) %MON dynstat_uvel_max             =   3.9863995341085E-03
(PID.TID 0000.0001) %MON dynstat_uvel_min             =  -5.3585288999144E-04
(PID.TID 0000.0001) %MON dynstat_uvel_mean            =   1.6547266097044E-03
(PID.TID 0000.0001) %MON dynstat_uvel_sd              =   7.4090112632925E-04
(PID.TID 0000.0001) %MON dynstat_uvel_del2            =   3.7740839080866E-04
(PID.TID 0000.0001) %MON dynstat_vvel_max             =   1.6937452511521E-02
(PID.TID 0000.0001) %MON dynstat_vvel_min             =  -6.0347154462820E-03
(PID.TID 0000.0001) %MON dynstat_vvel_mean            =   3.8057342882441E-08
(PID.TID 0000.0001) %MON dynstat_vvel_sd              =   2.0766474338128E-03
(PID.TID 0000.0001) %MON dynstat_vvel_del2            =   1.8395437883343E-03
(PID.TID 0000.0001) %MON dynstat_wvel_max             =   1.2519776838893E-05
(PID.TID 0000.0001) %MON dynstat_wvel_min             =  -1.1683485058534E-05
(PID.TID 0000.0001) %MON dynstat_wvel_mean            =  -5.9039198926517E-23
(PID.TID 0000.0001) %MON dynstat_wvel_sd              =   7.2102162142702E-06
(PID.TID 0000.0001) %MON dynstat_wvel_del2            =   4.6321427284400E-06
(PID.TID 0000.0001) %MON dynstat_theta_max            =   4.0000000000000E+00
(PID.TID 0000.0001) %MON dynstat_theta_min            =   4.0000000000000E+00
(PID.TID 0000.0001) %MON dynstat_theta_mean           =   4.0000000000000E+00
(PID.TID 0000.0001) %MON dynstat_theta_sd             =   0.0000000000000E+00
(PID.TID 0000.0001) %MON dynstat_theta_del2           =   0.0000000000000E+00
(PID.TID 0000.0001) %MON dynstat_salt_max             =   3.5000000000000E+01
(PID.TID 0000.0001) %MON dynstat_salt_min             =   3.5000000000000E+01
(PID.TID 0000.0001) %MON dynstat_salt_mean            =   3.5000000000000E+01
(PID.TID 0000.0001) %MON dynstat_salt_sd              =   0.0000000000000E+00
(PID.TID 0000.0001) %MON dynstat_salt_del2            =   0.0000000000000E+00
(PID.TID 0000.0001) %MON advcfl_uvel_max              =   7.1755191613952E-05
(PID.TID 0000.0001) %MON advcfl_vvel_max              =   3.0487414520738E-04
(PID.TID 0000.0001) %MON advcfl_wvel_max              =   2.3878421607114E-04
(PID.TID 0000.0001) %MON advcfl_W_hf_max              =   9.0142393240030E-04
(PID.TID 0000.0001) %MON pe_b_mean                    =   1.9198867975265E-08
(PID.TID 0000.0001) %MON ke_max                       =   7.7683927318800E-05
(PID.TID 0000.0001) %MON ke_mean                      =   3.2607015281084E-06
(PID.TID 0000.0001) %MON ke_vol                       =   3.5207326431489E+15
(PID.TID 0000.0001) %MON vort_r_min                   =  -2.6149661665809E-08
(PID.TID 0000.0001) %MON vort_r_max                   =   1.9931997670542E-08
(PID.TID 0000.0001) %MON vort_a_mean                  =  -1.1390240000000E-04
(PID.TID 0000.0001) %MON vort_a_sd                    =   3.7011175426035E-06
(PID.TID 0000.0001) %MON vort_p_mean                  =  -2.2184161870152E-04
(PID.TID 0000.0001) %MON vort_p_sd                    =   1.8699570422106E-04
(PID.TID 0000.0001) %MON surfExpan_theta_mean         =  -1.9404922113608E-22
(PID.TID 0000.0001) %MON surfExpan_salt_mean          =  -5.8153482029866E-22
(PID.TID 0000.0001) // =======================================================
(PID.TID 0000.0001) // End MONITOR dynamic field statistics
(PID.TID 0000.0001) // =======================================================
 cg2d: Sum(rhs),rhsMax =   5.55111512312578E-16  4.40318241364020E-02
(PID.TID 0000.0001)                    cg2d_init_res =    8.78551114305395E-02
(PID.TID 0000.0001)                       cg2d_iters =    17
(PID.TID 0000.0001)                         cg2d_res =    1.41555898747069E-14
(PID.TID 0000.0001) // =======================================================
(PID.TID 0000.0001) // Begin MONITOR dynamic field statistics
(PID.TID 0000.0001) // =======================================================
(PID.TID 0000.0001) %MON time_tsnumber                =                    32
(PID.TID 0000.0001) %MON time_secondsf                =   1.1520000000000E+05
(PID.TID 0000.0001) %MON dynstat_eta_max              =   6.6280520499451E-03
(PID.TID 0000.0001) %MON dynstat_eta_min              =  -6.7329506205775E-03
(PID.TID 0000.0001) %MON dynstat_eta_mean             =  -1.8012011423707E-18
(PID.TID 0000.0001) %MON dynstat_eta_sd               =   4.1711914530681E-03
(PID.TID 0000.0001) %MON dynstat_eta_del2             =   8.6987168722127E-04
(PID.TID 0000.0001) %MON dynstat_uvel_max             =   4.7310683319251E-03
(PID.TID 0000.0001) %MON dynstat_uvel_min             =   1.6370573072062E-05
(PID.TID 0000.0001) %MON dynstat_uvel_mean            =   1.6617471271485E-03
(PID.TID 0000.0001) %MON dynstat_uvel_sd              =   7.7717881722295E-04
(PID.TID 0000.0001) %MON dynstat_uvel_del2            =   4.0305869552993E-04
(PID.TID 0000.0001) %MON dynstat_vvel_max             =   1.6645069347750E-02
(PID.TID 0000.0001) %MON dynstat_vvel_min             =  -5.4939443949389E-03
(PID.TID 0000.0001) %MON dynstat_vvel_mean            =  -1.1427262561813E-07
(PID.TID 0000.0001) %MON dynstat_vvel_sd              =   2.0514363757726E-03
(PID.TID 0000.0001) %MON dynstat_vvel_del2            =   1.7736638690588E-03
(PID.TID 0000.0001) %MON dynstat_wvel_max             =   1.2169007763347E-05
(PID.TID 0000.0001) %MON dynstat_wvel_min             =  -1.1374192793546E-05
(PID.TID 0000.0001) %MON dynstat_wvel_mean            =  -2.8792003701840E-23
(PID.TID 0000.0001) %MON dynstat_wvel_sd              =   6.8341363725166E-06
(PID.TID 0000.0001) %MON dynstat_wvel_del2            =   4.3922174342679E-06
(PID.TID 0000.0001) %MON dynstat_theta_max            =   4.0000000000000E+00
(PID.TID 0000.0001) %MON dynstat_theta_min            =   4.0000000000000E+00
(PID.TID 0000.0001) %MON dynstat_theta_mean           =   4.0000000000000E+00
(PID.TID 0000.0001) %MON dynstat_theta_sd             =   0.0000000000000E+00
(PID.TID 0000.0001) %MON dynstat_theta_del2           =   0.0000000000000E+00
(PID.TID 0000.0001) %MON dynstat_salt_max             =   3.5000000000000E+01
(PID.TID 0000.0001) %MON dynstat_salt_min             =   3.5000000000000E+01
(PID.TID 0000.0001) %MON dynstat_salt_mean            =   3.5000000000000E+01
(PID.TID 0000.0001) %MON dynstat_salt_sd              =   0.0000000000000E+00
(PID.TID 0000.0001) %MON dynstat_salt_del2            =   0.0000000000000E+00
(PID.TID 0000.0001) %MON advcfl_uvel_max              =   8.5159229974651E-05
(PID.TID 0000.0001) %MON advcfl_vvel_max              =   2.9961124825950E-04
(PID.TID 0000.0001) %MON advcfl_wvel_max              =   2.4807518283454E-04
(PID.TID 0000.0001) %MON advcfl_W_hf_max              =   8.7616855896098E-04
(PID.TID 0000.0001) %MON pe_b_mean                    =   1.9391714104434E-08
(PID.TID 0000.0001) %MON ke_max                       =   7.7967199743811E-05
(PID.TID 0000.0001) %MON ke_mean                      =   3.2608519206012E-06
(PID.TID 0000.0001) %MON ke_vol                       =   3.5207326431489E+15
(PID.TID 0000.0001) %MON vort_r_min                   =  -2.2247474851154E-08
(PID.TID 0000.0001) %MON vort_r_max                   =   2.3655341659625E-08
(PID.TID 0000.0001) %MON vort_a_mean                  =  -1.1390240000000E-04
(PID.TID 0000.0001) %MON vort_a_sd                    =   3.7010095825765E-06
(PID.TID 0000.0001) %MON vort_p_mean                  =  -2.2184161870152E-04
(PID.TID 0000.0001) %MON vort_p_sd                    =   1.8699563008266E-04
(PID.TID 0000.0001) %MON surfExpan_theta_mean         =  -2.8265390028537E-22
(PID.TID 0000.0001) %MON surfExpan_salt_mean          =  -2.0049484295015E-21
(PID.TID 0000.0001) // =======================================================
(PID.TID 0000.0001) // End MONITOR dynamic field statistics
(PID.TID 0000.0001) // =======================================================
 cg2d: Sum(rhs),rhsMax =   1.66533453693773E-16  4.38387397480459E-02
(PID.TID 0000.0001)                    cg2d_init_res =    8.84834937862813E-02
(PID.TID 0000.0001)                       cg2d_iters =    17
(PID.TID 0000.0001)                         cg2d_res =    5.38310672776824E-15
(PID.TID 0000.0001) // =======================================================
(PID.TID 0000.0001) // Begin MONITOR dynamic field statistics
(PID.TID 0000.0001) // =======================================================
(PID.TID 0000.0001) %MON time_tsnumber                =                    33
(PID.TID 0000.0001) %MON time_secondsf                =   1.1880000000000E+05
(PID.TID 0000.0001) %MON dynstat_eta_max              =   6.6675203923476E-03
(PID.TID 0000.0001) %MON dynstat_eta_min              =  -6.7696526510980E-03
(PID.TID 0000.0001) %MON dynstat_eta_mean             =  -5.9402082115412E-19
(PID.TID 0000.0001) %MON dynstat_eta_sd               =   4.1855776693135E-03
(PID.TID 0000.0001) %MON dynstat_eta_del2             =   8.8840628388989E-04
(PID.TID 0000.0001) %MON dynstat_uvel_max             =   5.4921734452734E-03
(PID.TID 0000.0001) %MON dynstat_uvel_min             =   1.1336330457588E-04
(PID.TID 0000.0001) %MON dynstat_uvel_mean            =   1.6659654398007E-03
(PID.TID 0000.0001) %MON dynstat_uvel_sd              =   8.6498238776940E-04
(PID.TID 0000.0001) %MON dynstat_uvel_del2            =   4.2744421516123E-04
(PID.TID 0000.0001) %MON dynstat_vvel_max             =   1.6832035611108E-02
(PID.TID 0000.0001) %MON dynstat_vvel_min             =  -4.2378253907026E-03
(PID.TID 0000.0001) %MON dynstat_vvel_mean            =  -2.6351371109220E-07
(PID.TID 0000.0001) %MON dynstat_vvel_sd              =   2.0758129671258E-03
(PID.TID 0000.0001) %MON dynstat_vvel_del2            =   1.6949109003801E-03
(PID.TID 0000.0001) %MON dynstat_wvel_max             =   1.1707224155411E-05
(PID.TID 0000.0001) %MON dynstat_wvel_min             =  -1.1033195775665E-05
(PID.TID 0000.0001) %MON dynstat_wvel_mean            =  -5.2802663828645E-24
(PID.TID 0000.0001) %MON dynstat_wvel_sd              =   6.5644772035530E-06
(PID.TID 0000.0001) %MON dynstat_wvel_del2            =   4.1858609948840E-06
(PID.TID 0000.0001) %MON dynstat_theta_max            =   4.0000000000000E+00
(PID.TID 0000.0001) %MON dynstat_theta_min            =   4.0000000000000E+00
(PID.TID 0000.0001) %MON dynstat_theta_mean           =   4.0000000000000E+00
(PID.TID 0000.0001) %MON dynstat_theta_sd             =   0.0000000000000E+00
(PID.TID 0000.0001) %MON dynstat_theta_del2           =   0.0000000000000E+00
(PID.TID 0000.0001) %MON dynstat_salt_max             =   3.5000000000000E+01
(PID.TID 0000.0001) %MON dynstat_salt_min             =   3.5000000000000E+01
(PID.TID 0000.0001) %MON dynstat_salt_mean            =   3.5000000000000E+01
(PID.TID 0000.0001) %MON dynstat_salt_sd              =   0.0000000000000E+00
(PID.TID 0000.0001) %MON dynstat_salt_del2            =   0.0000000000000E+00
(PID.TID 0000.0001) %MON advcfl_uvel_max              =   9.8859122014921E-05
(PID.TID 0000.0001) %MON advcfl_vvel_max              =   3.0297664099995E-04
(PID.TID 0000.0001) %MON advcfl_wvel_max              =   2.5778808522959E-04
(PID.TID 0000.0001) %MON advcfl_W_hf_max              =   8.4292013918956E-04
(PID.TID 0000.0001) %MON pe_b_mean                    =   1.9525706743121E-08
(PID.TID 0000.0001) %MON ke_max                       =   8.2856921364052E-05
(PID.TID 0000.0001) %MON ke_mean                      =   3.3776925178535E-06
(PID.TID 0000.0001) %MON ke_vol                       =   3.5207326431489E+15
(PID.TID 0000.0001) %MON vort_r_min                   =  -2.5701815147733E-08
(PID.TID 0000.0001) %MON vort_r_max                   =   2.7460867226367E-08
(PID.TID 0000.0001) %MON vort_a_mean                  =  -1.1390240000000E-04
(PID.TID 0000.0001) %MON vort_a_sd                    =   3.7009063128683E-06
(PID.TID 0000.0001) %MON vort_p_mean                  =  -2.2184161870152E-04
(PID.TID 0000.0001) %MON vort_p_sd                    =   1.8699556043585E-04
(PID.TID 0000.0001) %MON surfExpan_theta_mean         =  -6.3749894252396E-22
(PID.TID 0000.0001) %MON surfExpan_salt_mean          =  -5.1006521228913E-21
(PID.TID 0000.0001) // =======================================================
(PID.TID 0000.0001) // End MONITOR dynamic field statistics
(PID.TID 0000.0001) // =======================================================
 cg2d: Sum(rhs),rhsMax =  -4.57966997657877E-16  4.54379564434545E-02
(PID.TID 0000.0001)                    cg2d_init_res =    8.55518601472365E-02
(PID.TID 0000.0001)                       cg2d_iters =    17
(PID.TID 0000.0001)                         cg2d_res =    4.83423276364077E-15
(PID.TID 0000.0001) // =======================================================
(PID.TID 0000.0001) // Begin MONITOR dynamic field statistics
(PID.TID 0000.0001) // =======================================================
(PID.TID 0000.0001) %MON time_tsnumber                =                    34
(PID.TID 0000.0001) %MON time_secondsf                =   1.2240000000000E+05
(PID.TID 0000.0001) %MON dynstat_eta_max              =   6.6980172028235E-03
(PID.TID 0000.0001) %MON dynstat_eta_min              =  -6.7976245518351E-03
(PID.TID 0000.0001) %MON dynstat_eta_mean             =   1.7834827303886E-18
(PID.TID 0000.0001) %MON dynstat_eta_sd               =   4.1937503138212E-03
(PID.TID 0000.0001) %MON dynstat_eta_del2             =   9.0647223559737E-04
(PID.TID 0000.0001) %MON dynstat_uvel_max             =   6.5035893227018E-03
(PID.TID 0000.0001) %MON dynstat_uvel_min             =   1.7398880202246E-04
(PID.TID 0000.0001) %MON dynstat_uvel_mean            =   1.6675197392734E-03
(PID.TID 0000.0001) %MON dynstat_uvel_sd              =   9.5989189776228E-04
(PID.TID 0000.0001) %MON dynstat_uvel_del2            =   4.4981287537614E-04
(PID.TID 0000.0001) %MON dynstat_vvel_max             =   1.7407324259209E-02
(PID.TID 0000.0001) %MON dynstat_vvel_min             =  -2.4432754880436E-03
(PID.TID 0000.0001) %MON dynstat_vvel_mean            =  -4.1039395513112E-07
(PID.TID 0000.0001) %MON dynstat_vvel_sd              =   2.1514690638260E-03
(PID.TID 0000.0001) %MON dynstat_vvel_del2            =   1.6088848218223E-03
(PID.TID 0000.0001) %MON dynstat_wvel_max             =   1.1171908317471E-05
(PID.TID 0000.0001) %MON dynstat_wvel_min             =  -1.0680456505386E-05
(PID.TID 0000.0001) %MON dynstat_wvel_mean            =   9.3963795474597E-24
(PID.TID 0000.0001) %MON dynstat_wvel_sd              =   6.4385506068122E-06
(PID.TID 0000.0001) %MON dynstat_wvel_del2            =   4.0095847312332E-06
(PID.TID 0000.0001) %MON dynstat_theta_max            =   4.0000000000000E+00
(PID.TID 0000.0001) %MON dynstat_theta_min            =   4.0000000000000E+00
(PID.TID 0000.0001) %MON dynstat_theta_mean           =   4.0000000000000E+00
(PID.TID 0000.0001) %MON dynstat_theta_sd             =   0.0000000000000E+00
(PID.TID 0000.0001) %MON dynstat_theta_del2           =   0.0000000000000E+00
(PID.TID 0000.0001) %MON dynstat_salt_max             =   3.5000000000000E+01
(PID.TID 0000.0001) %MON dynstat_salt_min             =   3.5000000000000E+01
(PID.TID 0000.0001) %MON dynstat_salt_mean            =   3.5000000000000E+01
(PID.TID 0000.0001) %MON dynstat_salt_sd              =   0.0000000000000E+00
(PID.TID 0000.0001) %MON dynstat_salt_del2            =   0.0000000000000E+00
(PID.TID 0000.0001) %MON advcfl_uvel_max              =   1.1706460780863E-04
(PID.TID 0000.0001) %MON advcfl_vvel_max              =   3.1333183666576E-04
(PID.TID 0000.0001) %MON advcfl_wvel_max              =   2.6810473606924E-04
(PID.TID 0000.0001) %MON advcfl_W_hf_max              =   8.0437739885789E-04
(PID.TID 0000.0001) %MON pe_b_mean                    =   1.9602031907820E-08
(PID.TID 0000.0001) %MON ke_max                       =   9.1200755952738E-05
(PID.TID 0000.0001) %MON ke_mean                      =   3.5868145060120E-06
(PID.TID 0000.0001) %MON ke_vol                       =   3.5207326431489E+15
(PID.TID 0000.0001) %MON vort_r_min                   =  -2.8020472362351E-08
(PID.TID 0000.0001) %MON vort_r_max                   =   3.0876502225879E-08
(PID.TID 0000.0001) %MON vort_a_mean                  =  -1.1390240000000E-04
(PID.TID 0000.0001) %MON vort_a_sd                    =   3.7008099234062E-06
(PID.TID 0000.0001) %MON vort_p_mean                  =  -2.2184161870152E-04
(PID.TID 0000.0001) %MON vort_p_sd                    =   1.8699550000592E-04
(PID.TID 0000.0001) %MON surfExpan_theta_mean         =  -3.5527136788005E-22
(PID.TID 0000.0001) %MON surfExpan_salt_mean          =  -2.5512469914446E-21
(PID.TID 0000.0001) // =======================================================
(PID.TID 0000.0001) // End MONITOR dynamic field statistics
(PID.TID 0000.0001) // =======================================================
 cg2d: Sum(rhs),rhsMax =  -6.52256026967279E-16  4.77259345831477E-02
(PID.TID 0000.0001)                    cg2d_init_res =    8.13505944162701E-02
(PID.TID 0000.0001)                       cg2d_iters =    17
(PID.TID 0000.0001)                         cg2d_res =    1.03347607409553E-14
(PID.TID 0000.0001) // =======================================================
(PID.TID 0000.0001) // Begin MONITOR dynamic field statistics
(PID.TID 0000.0001) // =======================================================
(PID.TID 0000.0001) %MON time_tsnumber                =                    35
(PID.TID 0000.0001) %MON time_secondsf                =   1.2600000000000E+05
(PID.TID 0000.0001) %MON dynstat_eta_max              =   6.7202739937268E-03
(PID.TID 0000.0001) %MON dynstat_eta_min              =  -6.8177228762003E-03
(PID.TID 0000.0001) %MON dynstat_eta_mean             =   2.4628126993775E-18
(PID.TID 0000.0001) %MON dynstat_eta_sd               =   4.1957871758082E-03
(PID.TID 0000.0001) %MON dynstat_eta_del2             =   9.2404942202975E-04
(PID.TID 0000.0001) %MON dynstat_uvel_max             =   7.0369970425856E-03
(PID.TID 0000.0001) %MON dynstat_uvel_min             =   2.1214780315941E-04
(PID.TID 0000.0001) %MON dynstat_uvel_mean            =   1.6665091310462E-03
(PID.TID 0000.0001) %MON dynstat_uvel_sd              =   1.0258582007099E-03
(PID.TID 0000.0001) %MON dynstat_uvel_del2            =   4.6394609174233E-04
(PID.TID 0000.0001) %MON dynstat_vvel_max             =   1.8228303020229E-02
(PID.TID 0000.0001) %MON dynstat_vvel_min             =  -1.7412661946565E-03
(PID.TID 0000.0001) %MON dynstat_vvel_mean            =  -5.5542149641833E-07
(PID.TID 0000.0001) %MON dynstat_vvel_sd              =   2.2727071023934E-03
(PID.TID 0000.0001) %MON dynstat_vvel_del2            =   1.5228948038858E-03
(PID.TID 0000.0001) %MON dynstat_wvel_max             =   1.0613684160698E-05
(PID.TID 0000.0001) %MON dynstat_wvel_min             =  -1.0389680871455E-05
(PID.TID 0000.0001) %MON dynstat_wvel_mean            =  -9.1136566230229E-23
(PID.TID 0000.0001) %MON dynstat_wvel_sd              =   6.4791961386728E-06
(PID.TID 0000.0001) %MON dynstat_wvel_del2            =   3.8644903261680E-06
(PID.TID 0000.0001) %MON dynstat_theta_max            =   4.0000000000000E+00
(PID.TID 0000.0001) %MON dynstat_theta_min            =   4.0000000000000E+00
(PID.TID 0000.0001) %MON dynstat_theta_mean           =   4.0000000000000E+00
(PID.TID 0000.0001) %MON dynstat_theta_sd             =   0.0000000000000E+00
(PID.TID 0000.0001) %MON dynstat_theta_del2           =   0.0000000000000E+00
(PID.TID 0000.0001) %MON dynstat_salt_max             =   3.5000000000000E+01
(PID.TID 0000.0001) %MON dynstat_salt_min             =   3.5000000000000E+01
(PID.TID 0000.0001) %MON dynstat_salt_mean            =   3.5000000000000E+01
(PID.TID 0000.0001) %MON dynstat_salt_sd              =   0.0000000000000E+00
(PID.TID 0000.0001) %MON dynstat_salt_del2            =   0.0000000000000E+00
(PID.TID 0000.0001) %MON advcfl_uvel_max              =   1.2666594676654E-04
(PID.TID 0000.0001) %MON advcfl_vvel_max              =   3.2810945436413E-04
(PID.TID 0000.0001) %MON advcfl_wvel_max              =   2.7909562039532E-04
(PID.TID 0000.0001) %MON advcfl_W_hf_max              =   7.6418525957024E-04
(PID.TID 0000.0001) %MON pe_b_mean                    =   1.9621077547952E-08
(PID.TID 0000.0001) %MON ke_max                       =   1.0146092454109E-04
(PID.TID 0000.0001) %MON ke_mean                      =   3.8517680715729E-06
(PID.TID 0000.0001) %MON ke_vol                       =   3.5207326431489E+15
(PID.TID 0000.0001) %MON vort_r_min                   =  -2.8226032938139E-08
(PID.TID 0000.0001) %MON vort_r_max                   =   3.3557722250890E-08
(PID.TID 0000.0001) %MON vort_a_mean                  =  -1.1390240000000E-04
(PID.TID 0000.0001) %MON vort_a_sd                    =   3.7007217478024E-06
(PID.TID 0000.0001) %MON vort_p_mean                  =  -2.2184161870152E-04
(PID.TID 0000.0001) %MON vort_p_sd                    =   1.8699545206750E-04
(PID.TID 0000.0001) %MON surfExpan_theta_mean         =  -4.1609382606111E-22
(PID.TID 0000.0001) %MON surfExpan_salt_mean          =  -5.7318061408296E-21
(PID.TID 0000.0001) // =======================================================
(PID.TID 0000.0001) // End MONITOR dynamic field statistics
(PID.TID 0000.0001) // =======================================================
 cg2d: Sum(rhs),rhsMax =  -4.16333634234434E-16  4.99949947407192E-02
(PID.TID 0000.0001)                    cg2d_init_res =    7.71411039115470E-02
(PID.TID 0000.0001)                       cg2d_iters =    17
(PID.TID 0000.0001)                         cg2d_res =    1.28601975220439E-14
(PID.TID 0000.0001) // =======================================================
(PID.TID 0000.0001) // Begin MONITOR dynamic field statistics
(PID.TID 0000.0001) // =======================================================
(PID.TID 0000.0001) %MON time_tsnumber                =                    36
(PID.TID 0000.0001) %MON time_secondsf                =   1.2960000000000E+05
(PID.TID 0000.0001) %MON dynstat_eta_max              =   6.7344920685083E-03
(PID.TID 0000.0001) %MON dynstat_eta_min              =  -6.8301749072770E-03
(PID.TID 0000.0001) %MON dynstat_eta_mean             =   1.6698148101568E-18
(PID.TID 0000.0001) %MON dynstat_eta_sd               =   4.1916739250382E-03
(PID.TID 0000.0001) %MON dynstat_eta_del2             =   9.4103884623511E-04
(PID.TID 0000.0001) %MON dynstat_uvel_max             =   7.0656646444842E-03
(PID.TID 0000.0001) %MON dynstat_uvel_min             =   2.2084598566223E-04
(PID.TID 0000.0001) %MON dynstat_uvel_mean            =   1.6629903523356E-03
(PID.TID 0000.0001) %MON dynstat_uvel_sd              =   1.0489640109720E-03
(PID.TID 0000.0001) %MON dynstat_uvel_del2            =   4.6997417715564E-04
(PID.TID 0000.0001) %MON dynstat_vvel_max             =   1.9126606229495E-02
(PID.TID 0000.0001) %MON dynstat_vvel_min             =  -1.6476108906359E-03
(PID.TID 0000.0001) %MON dynstat_vvel_mean            =  -6.9875700437596E-07
(PID.TID 0000.0001) %MON dynstat_vvel_sd              =   2.4207057855314E-03
(PID.TID 0000.0001) %MON dynstat_vvel_del2            =   1.4451758881990E-03
(PID.TID 0000.0001) %MON dynstat_wvel_max             =   1.1050504773349E-05
(PID.TID 0000.0001) %MON dynstat_wvel_min             =  -1.1050936621280E-05
(PID.TID 0000.0001) %MON dynstat_wvel_mean            =  -4.6670070982405E-23
(PID.TID 0000.0001) %MON dynstat_wvel_sd              =   6.6622819106822E-06
(PID.TID 0000.0001) %MON dynstat_wvel_del2            =   3.7498967264102E-06
(PID.TID 0000.0001) %MON dynstat_theta_max            =   4.0000000000000E+00
(PID.TID 0000.0001) %MON dynstat_theta_min            =   4.0000000000000E+00
(PID.TID 0000.0001) %MON dynstat_theta_mean           =   4.0000000000000E+00
(PID.TID 0000.0001) %MON dynstat_theta_sd             =   0.0000000000000E+00
(PID.TID 0000.0001) %MON dynstat_theta_del2           =   0.0000000000000E+00
(PID.TID 0000.0001) %MON dynstat_salt_max             =   3.5000000000000E+01
(PID.TID 0000.0001) %MON dynstat_salt_min             =   3.5000000000000E+01
(PID.TID 0000.0001) %MON dynstat_salt_mean            =   3.5000000000000E+01
(PID.TID 0000.0001) %MON dynstat_salt_sd              =   0.0000000000000E+00
(PID.TID 0000.0001) %MON dynstat_salt_del2            =   0.0000000000000E+00
(PID.TID 0000.0001) %MON advcfl_uvel_max              =   1.2718196360071E-04
(PID.TID 0000.0001) %MON advcfl_vvel_max              =   3.4427891213090E-04
(PID.TID 0000.0001) %MON advcfl_wvel_max              =   2.9070770373277E-04
(PID.TID 0000.0001) %MON advcfl_W_hf_max              =   7.2639019900134E-04
(PID.TID 0000.0001) %MON pe_b_mean                    =   1.9582626192083E-08
(PID.TID 0000.0001) %MON ke_max                       =   1.1469868730474E-04
(PID.TID 0000.0001) %MON ke_mean                      =   4.1303625747753E-06
(PID.TID 0000.0001) %MON ke_vol                       =   3.5207326431489E+15
(PID.TID 0000.0001) %MON vort_r_min                   =  -3.0007922213884E-08
(PID.TID 0000.0001) %MON vort_r_max                   =   3.5328323222421E-08
(PID.TID 0000.0001) %MON vort_a_mean                  =  -1.1390240000000E-04
(PID.TID 0000.0001) %MON vort_a_sd                    =   3.7006421011001E-06
(PID.TID 0000.0001) %MON vort_p_mean                  =  -2.2184161870152E-04
(PID.TID 0000.0001) %MON vort_p_sd                    =   1.8699541806258E-04
(PID.TID 0000.0001) %MON surfExpan_theta_mean         =  -2.3817392502679E-22
(PID.TID 0000.0001) %MON surfExpan_salt_mean          =  -1.5678036646705E-21
(PID.TID 0000.0001) // =======================================================
(PID.TID 0000.0001) // End MONITOR dynamic field statistics
(PID.TID 0000.0001) // =======================================================
 cg2d: Sum(rhs),rhsMax =  -1.16573417585641E-15  5.22073351048866E-02
(PID.TID 0000.0001)                    cg2d_init_res =    7.29006265666358E-02
(PID.TID 0000.0001)                       cg2d_iters =    17
(PID.TID 0000.0001)                         cg2d_res =    1.11397441892897E-14
(PID.TID 0000.0001) // =======================================================
(PID.TID 0000.0001) // Begin MONITOR dynamic field statistics
(PID.TID 0000.0001) // =======================================================
(PID.TID 0000.0001) %MON time_tsnumber                =                    37
(PID.TID 0000.0001) %MON time_secondsf                =   1.3320000000000E+05
(PID.TID 0000.0001) %MON dynstat_eta_max              =   6.7403519035206E-03
(PID.TID 0000.0001) %MON dynstat_eta_min              =  -6.8345952816155E-03
(PID.TID 0000.0001) %MON dynstat_eta_mean             =   5.0241826102138E-18
(PID.TID 0000.0001) %MON dynstat_eta_sd               =   4.1813425441816E-03
(PID.TID 0000.0001) %MON dynstat_eta_del2             =   9.5727646616276E-04
(PID.TID 0000.0001) %MON dynstat_uvel_max             =   7.2384641853006E-03
(PID.TID 0000.0001) %MON dynstat_uvel_min             =   1.9855595923585E-04
(PID.TID 0000.0001) %MON dynstat_uvel_mean            =   1.6569822997284E-03
(PID.TID 0000.0001) %MON dynstat_uvel_sd              =   1.0368976040305E-03
(PID.TID 0000.0001) %MON dynstat_uvel_del2            =   4.7475758239955E-04
(PID.TID 0000.0001) %MON dynstat_vvel_max             =   1.9936318138961E-02
(PID.TID 0000.0001) %MON dynstat_vvel_min             =  -1.7166765856373E-03
(PID.TID 0000.0001) %MON dynstat_vvel_mean            =  -8.4013921153066E-07
(PID.TID 0000.0001) %MON dynstat_vvel_sd              =   2.5670527954267E-03
(PID.TID 0000.0001) %MON dynstat_vvel_del2            =   1.3829693176553E-03
(PID.TID 0000.0001) %MON dynstat_wvel_max             =   1.1832450995233E-05
(PID.TID 0000.0001) %MON dynstat_wvel_min             =  -1.1642751006832E-05
(PID.TID 0000.0001) %MON dynstat_wvel_mean            =   1.7316779121757E-23
(PID.TID 0000.0001) %MON dynstat_wvel_sd              =   6.9134550357831E-06
(PID.TID 0000.0001) %MON dynstat_wvel_del2            =   3.6673375843037E-06
(PID.TID 0000.0001) %MON dynstat_theta_max            =   4.0000000000000E+00
(PID.TID 0000.0001) %MON dynstat_theta_min            =   4.0000000000000E+00
(PID.TID 0000.0001) %MON dynstat_theta_mean           =   4.0000000000000E+00
(PID.TID 0000.0001) %MON dynstat_theta_sd             =   0.0000000000000E+00
(PID.TID 0000.0001) %MON dynstat_theta_del2           =   0.0000000000000E+00
(PID.TID 0000.0001) %MON dynstat_salt_max             =   3.5000000000000E+01
(PID.TID 0000.0001) %MON dynstat_salt_min             =   3.5000000000000E+01
(PID.TID 0000.0001) %MON dynstat_salt_mean            =   3.5000000000000E+01
(PID.TID 0000.0001) %MON dynstat_salt_sd              =   0.0000000000000E+00
(PID.TID 0000.0001) %MON dynstat_salt_del2            =   0.0000000000000E+00
(PID.TID 0000.0001) %MON advcfl_uvel_max              =   1.3029235533541E-04
(PID.TID 0000.0001) %MON advcfl_vvel_max              =   3.5885372650131E-04
(PID.TID 0000.0001) %MON advcfl_wvel_max              =   3.0277184771288E-04
(PID.TID 0000.0001) %MON advcfl_W_hf_max              =   7.4999119732811E-04
(PID.TID 0000.0001) %MON pe_b_mean                    =   1.9486213042838E-08
(PID.TID 0000.0001) %MON ke_max                       =   1.2658636837921E-04
(PID.TID 0000.0001) %MON ke_mean                      =   4.3815337765568E-06
(PID.TID 0000.0001) %MON ke_vol                       =   3.5207326431489E+15
(PID.TID 0000.0001) %MON vort_r_min                   =  -3.0386693638812E-08
(PID.TID 0000.0001) %MON vort_r_max                   =   3.6192320926503E-08
(PID.TID 0000.0001) %MON vort_a_mean                  =  -1.1390240000000E-04
(PID.TID 0000.0001) %MON vort_a_sd                    =   3.7005702579148E-06
(PID.TID 0000.0001) %MON vort_p_mean                  =  -2.2184161870152E-04
(PID.TID 0000.0001) %MON vort_p_sd                    =   1.8699539749229E-04
(PID.TID 0000.0001) %MON surfExpan_theta_mean         =   7.5203843152849E-22
(PID.TID 0000.0001) %MON surfExpan_salt_mean          =   5.8291971249957E-21
(PID.TID 0000.0001) // =======================================================
(PID.TID 0000.0001) // End MONITOR dynamic field statistics
(PID.TID 0000.0001) // =======================================================
 cg2d: Sum(rhs),rhsMax =  -2.22044604925031E-16  5.43317160002372E-02
(PID.TID 0000.0001)                    cg2d_init_res =    6.86952151634309E-02
(PID.TID 0000.0001)                       cg2d_iters =    17
(PID.TID 0000.0001)                         cg2d_res =    1.05111661298678E-14
(PID.TID 0000.0001) // =======================================================
(PID.TID 0000.0001) // Begin MONITOR dynamic field statistics
(PID.TID 0000.0001) // =======================================================
(PID.TID 0000.0001) %MON time_tsnumber                =                    38
(PID.TID 0000.0001) %MON time_secondsf                =   1.3680000000000E+05
(PID.TID 0000.0001) %MON dynstat_eta_max              =   6.7371115804567E-03
(PID.TID 0000.0001) %MON dynstat_eta_min              =  -6.8300999581668E-03
(PID.TID 0000.0001) %MON dynstat_eta_mean             =   8.1866746768355E-19
(PID.TID 0000.0001) %MON dynstat_eta_sd               =   4.1647184020399E-03
(PID.TID 0000.0001) %MON dynstat_eta_del2             =   9.7255700974509E-04
(PID.TID 0000.0001) %MON dynstat_uvel_max             =   7.2634017329831E-03
(PID.TID 0000.0001) %MON dynstat_uvel_min             =   1.4945288957434E-04
(PID.TID 0000.0001) %MON dynstat_uvel_mean            =   1.6484773786465E-03
(PID.TID 0000.0001) %MON dynstat_uvel_sd              =   1.0135429544153E-03
(PID.TID 0000.0001) %MON dynstat_uvel_del2            =   4.8843793722637E-04
(PID.TID 0000.0001) %MON dynstat_vvel_max             =   2.0520004802647E-02
(PID.TID 0000.0001) %MON dynstat_vvel_min             =  -1.7864845233097E-03
(PID.TID 0000.0001) %MON dynstat_vvel_mean            =  -9.7887578254942E-07
(PID.TID 0000.0001) %MON dynstat_vvel_sd              =   2.6829197809180E-03
(PID.TID 0000.0001) %MON dynstat_vvel_del2            =   1.3410863634282E-03
(PID.TID 0000.0001) %MON dynstat_wvel_max             =   1.2422470461659E-05
(PID.TID 0000.0001) %MON dynstat_wvel_min             =  -1.2088217132611E-05
(PID.TID 0000.0001) %MON dynstat_wvel_mean            =   3.6421364971570E-23
(PID.TID 0000.0001) %MON dynstat_wvel_sd              =   7.1377395582476E-06
(PID.TID 0000.0001) %MON dynstat_wvel_del2            =   3.6109507962958E-06
(PID.TID 0000.0001) %MON dynstat_theta_max            =   4.0000000000000E+00
(PID.TID 0000.0001) %MON dynstat_theta_min            =   4.0000000000000E+00
(PID.TID 0000.0001) %MON dynstat_theta_mean           =   4.0000000000000E+00
(PID.TID 0000.0001) %MON dynstat_theta_sd             =   0.0000000000000E+00
(PID.TID 0000.0001) %MON dynstat_theta_del2           =   0.0000000000000E+00
(PID.TID 0000.0001) %MON dynstat_salt_max             =   3.5000000000000E+01
(PID.TID 0000.0001) %MON dynstat_salt_min             =   3.5000000000000E+01
(PID.TID 0000.0001) %MON dynstat_salt_mean            =   3.5000000000000E+01
(PID.TID 0000.0001) %MON dynstat_salt_sd              =   0.0000000000000E+00
(PID.TID 0000.0001) %MON dynstat_salt_del2            =   0.0000000000000E+00
(PID.TID 0000.0001) %MON advcfl_uvel_max              =   1.3074123119370E-04
(PID.TID 0000.0001) %MON advcfl_vvel_max              =   3.6936008644764E-04
(PID.TID 0000.0001) %MON advcfl_wvel_max              =   3.1502817559124E-04
(PID.TID 0000.0001) %MON advcfl_W_hf_max              =   7.7597489116575E-04
(PID.TID 0000.0001) %MON pe_b_mean                    =   1.9331574856617E-08
(PID.TID 0000.0001) %MON ke_max                       =   1.3387276906252E-04
(PID.TID 0000.0001) %MON ke_mean                      =   4.5716458100666E-06
(PID.TID 0000.0001) %MON ke_vol                       =   3.5207326431489E+15
(PID.TID 0000.0001) %MON vort_r_min                   =  -3.4950000943099E-08
(PID.TID 0000.0001) %MON vort_r_max                   =   3.6317008664915E-08
(PID.TID 0000.0001) %MON vort_a_mean                  =  -1.1390240000000E-04
(PID.TID 0000.0001) %MON vort_a_sd                    =   3.7005045651196E-06
(PID.TID 0000.0001) %MON vort_p_mean                  =  -2.2184161870152E-04
(PID.TID 0000.0001) %MON vort_p_sd                    =   1.8699538808680E-04
(PID.TID 0000.0001) %MON surfExpan_theta_mean         =  -2.4840574042173E-22
(PID.TID 0000.0001) %MON surfExpan_salt_mean          =  -2.5601742947856E-22
(PID.TID 0000.0001) // =======================================================
(PID.TID 0000.0001) // End MONITOR dynamic field statistics
(PID.TID 0000.0001) // =======================================================
 cg2d: Sum(rhs),rhsMax =  -1.24900090270330E-16  5.63476439505484E-02
(PID.TID 0000.0001)                    cg2d_init_res =    6.46716212532966E-02
(PID.TID 0000.0001)                       cg2d_iters =    17
(PID.TID 0000.0001)                         cg2d_res =    6.85087709219592E-15
(PID.TID 0000.0001) // =======================================================
(PID.TID 0000.0001) // Begin MONITOR dynamic field statistics
(PID.TID 0000.0001) // =======================================================
(PID.TID 0000.0001) %MON time_tsnumber                =                    39
(PID.TID 0000.0001) %MON time_secondsf                =   1.4040000000000E+05
(PID.TID 0000.0001) %MON dynstat_eta_max              =   6.7237763845624E-03
(PID.TID 0000.0001) %MON dynstat_eta_min              =  -6.8154966993303E-03
(PID.TID 0000.0001) %MON dynstat_eta_mean             =   7.1699032559991E-19
(PID.TID 0000.0001) %MON dynstat_eta_sd               =   4.1417693858560E-03
(PID.TID 0000.0001) %MON dynstat_eta_del2             =   9.8666382351962E-04
(PID.TID 0000.0001) %MON dynstat_uvel_max             =   7.1983138479836E-03
(PID.TID 0000.0001) %MON dynstat_uvel_min             =   7.2311562135495E-05
(PID.TID 0000.0001) %MON dynstat_uvel_mean            =   1.6374576477415E-03
(PID.TID 0000.0001) %MON dynstat_uvel_sd              =   1.0076049612808E-03
(PID.TID 0000.0001) %MON dynstat_uvel_del2            =   5.2465301555478E-04
(PID.TID 0000.0001) %MON dynstat_vvel_max             =   2.0835751484585E-02
(PID.TID 0000.0001) %MON dynstat_vvel_min             =  -1.8435528771826E-03
(PID.TID 0000.0001) %MON dynstat_vvel_mean            =  -1.1139036822103E-06
(PID.TID 0000.0001) %MON dynstat_vvel_sd              =   2.7475946149917E-03
(PID.TID 0000.0001) %MON dynstat_vvel_del2            =   1.3224679155481E-03
(PID.TID 0000.0001) %MON dynstat_wvel_max             =   1.2755155898493E-05
(PID.TID 0000.0001) %MON dynstat_wvel_min             =  -1.2337312630756E-05
(PID.TID 0000.0001) %MON dynstat_wvel_mean            =   8.4193223821265E-23
(PID.TID 0000.0001) %MON dynstat_wvel_sd              =   7.2562471122092E-06
(PID.TID 0000.0001) %MON dynstat_wvel_del2            =   3.5768859634871E-06
(PID.TID 0000.0001) %MON dynstat_theta_max            =   4.0000000000000E+00
(PID.TID 0000.0001) %MON dynstat_theta_min            =   4.0000000000000E+00
(PID.TID 0000.0001) %MON dynstat_theta_mean           =   4.0000000000000E+00
(PID.TID 0000.0001) %MON dynstat_theta_sd             =   0.0000000000000E+00
(PID.TID 0000.0001) %MON dynstat_theta_del2           =   0.0000000000000E+00
(PID.TID 0000.0001) %MON dynstat_salt_max             =   3.5000000000000E+01
(PID.TID 0000.0001) %MON dynstat_salt_min             =   3.5000000000000E+01
(PID.TID 0000.0001) %MON dynstat_salt_mean            =   3.5000000000000E+01
(PID.TID 0000.0001) %MON dynstat_salt_sd              =   0.0000000000000E+00
(PID.TID 0000.0001) %MON dynstat_salt_del2            =   0.0000000000000E+00
(PID.TID 0000.0001) %MON advcfl_uvel_max              =   1.2956964926370E-04
(PID.TID 0000.0001) %MON advcfl_vvel_max              =   3.7504352672253E-04
(PID.TID 0000.0001) %MON advcfl_wvel_max              =   3.2716491240353E-04
(PID.TID 0000.0001) %MON advcfl_W_hf_max              =   7.9085836736447E-04
(PID.TID 0000.0001) %MON pe_b_mean                    =   1.9119114720732E-08
(PID.TID 0000.0001) %MON ke_max                       =   1.3594680449466E-04
(PID.TID 0000.0001) %MON ke_mean                      =   4.6792466814897E-06
(PID.TID 0000.0001) %MON ke_vol                       =   3.5207326431489E+15
(PID.TID 0000.0001) %MON vort_r_min                   =  -4.2476774452624E-08
(PID.TID 0000.0001) %MON vort_r_max                   =   3.5991569239918E-08
(PID.TID 0000.0001) %MON vort_a_mean                  =  -1.1390240000000E-04
(PID.TID 0000.0001) %MON vort_a_sd                    =   3.7004426755322E-06
(PID.TID 0000.0001) %MON vort_p_mean                  =  -2.2184161870152E-04
(PID.TID 0000.0001) %MON vort_p_sd                    =   1.8699538621760E-04
(PID.TID 0000.0001) %MON surfExpan_theta_mean         =   6.5142558014486E-22
(PID.TID 0000.0001) %MON surfExpan_salt_mean          =   8.2625151165416E-21
(PID.TID 0000.0001) // =======================================================
(PID.TID 0000.0001) // End MONITOR dynamic field statistics
(PID.TID 0000.0001) // =======================================================
 cg2d: Sum(rhs),rhsMax =  -1.94289029309402E-16  5.82478252901776E-02
(PID.TID 0000.0001)                    cg2d_init_res =    6.10278164538277E-02
(PID.TID 0000.0001)                       cg2d_iters =    17
(PID.TID 0000.0001)                         cg2d_res =    2.92678984027794E-15
(PID.TID 0000.0001) // =======================================================
(PID.TID 0000.0001) // Begin MONITOR dynamic field statistics
(PID.TID 0000.0001) // =======================================================
(PID.TID 0000.0001) %MON time_tsnumber                =                    40
(PID.TID 0000.0001) %MON time_secondsf                =   1.4400000000000E+05
(PID.TID 0000.0001) %MON dynstat_eta_max              =   6.6993093765011E-03
(PID.TID 0000.0001) %MON dynstat_eta_min              =  -6.7895211867525E-03
(PID.TID 0000.0001) %MON dynstat_eta_mean             =   8.0759637057781E-19
(PID.TID 0000.0001) %MON dynstat_eta_sd               =   4.1125514269896E-03
(PID.TID 0000.0001) %MON dynstat_eta_del2             =   9.9940003578460E-04
(PID.TID 0000.0001) %MON dynstat_uvel_max             =   7.1138191555736E-03
(PID.TID 0000.0001) %MON dynstat_uvel_min             =  -1.0474482864837E-03
(PID.TID 0000.0001) %MON dynstat_uvel_mean            =   1.6239130384740E-03
(PID.TID 0000.0001) %MON dynstat_uvel_sd              =   1.0355579366121E-03
(PID.TID 0000.0001) %MON dynstat_uvel_del2            =   6.0233348748637E-04
(PID.TID 0000.0001) %MON dynstat_vvel_max             =   2.0818395939503E-02
(PID.TID 0000.0001) %MON dynstat_vvel_min             =  -1.8861328747204E-03
(PID.TID 0000.0001) %MON dynstat_vvel_mean            =  -1.2439120325114E-06
(PID.TID 0000.0001) %MON dynstat_vvel_sd              =   2.7533647145834E-03
(PID.TID 0000.0001) %MON dynstat_vvel_del2            =   1.3276182779956E-03
(PID.TID 0000.0001) %MON dynstat_wvel_max             =   1.2808341878728E-05
(PID.TID 0000.0001) %MON dynstat_wvel_min             =  -1.2374176377157E-05
(PID.TID 0000.0001) %MON dynstat_wvel_mean            =   1.1697660998574E-22
(PID.TID 0000.0001) %MON dynstat_wvel_sd              =   7.2299986363572E-06
(PID.TID 0000.0001) %MON dynstat_wvel_del2            =   3.5628899847739E-06
(PID.TID 0000.0001) %MON dynstat_theta_max            =   4.0000000000000E+00
(PID.TID 0000.0001) %MON dynstat_theta_min            =   4.0000000000000E+00
(PID.TID 0000.0001) %MON dynstat_theta_mean           =   4.0000000000000E+00
(PID.TID 0000.0001) %MON dynstat_theta_sd             =   0.0000000000000E+00
(PID.TID 0000.0001) %MON dynstat_theta_del2           =   0.0000000000000E+00
(PID.TID 0000.0001) %MON dynstat_salt_max             =   3.5000000000000E+01
(PID.TID 0000.0001) %MON dynstat_salt_min             =   3.5000000000000E+01
(PID.TID 0000.0001) %MON dynstat_salt_mean            =   3.5000000000000E+01
(PID.TID 0000.0001) %MON dynstat_salt_sd              =   0.0000000000000E+00
(PID.TID 0000.0001) %MON dynstat_salt_del2            =   0.0000000000000E+00
(PID.TID 0000.0001) %MON advcfl_uvel_max              =   1.2804874480032E-04
(PID.TID 0000.0001) %MON advcfl_vvel_max              =   3.7473112691105E-04
(PID.TID 0000.0001) %MON advcfl_wvel_max              =   3.3886420288716E-04
(PID.TID 0000.0001) %MON advcfl_W_hf_max              =   7.9539436103016E-04
(PID.TID 0000.0001) %MON pe_b_mean                    =   1.8850316017454E-08
(PID.TID 0000.0001) %MON ke_max                       =   1.3288621325691E-04
(PID.TID 0000.0001) %MON ke_mean                      =   4.6976189478644E-06
(PID.TID 0000.0001) %MON ke_vol                       =   3.5207326431489E+15
(PID.TID 0000.0001) %MON vort_r_min                   =  -5.0047547826394E-08
(PID.TID 0000.0001) %MON vort_r_max                   =   3.5569095777868E-08
(PID.TID 0000.0001) %MON vort_a_mean                  =  -1.1390240000000E-04
(PID.TID 0000.0001) %MON vort_a_sd                    =   3.7003818786147E-06
(PID.TID 0000.0001) %MON vort_p_mean                  =  -2.2184161870152E-04
(PID.TID 0000.0001) %MON vort_p_sd                    =   1.8699538748298E-04
(PID.TID 0000.0001) %MON surfExpan_theta_mean         =   4.6838977141306E-22
(PID.TID 0000.0001) %MON surfExpan_salt_mean          =   4.7515680279275E-21
(PID.TID 0000.0001) // =======================================================
(PID.TID 0000.0001) // End MONITOR dynamic field statistics
(PID.TID 0000.0001) // =======================================================
 cg2d: Sum(rhs),rhsMax =   1.66533453693773E-16  6.00385233032928E-02
(PID.TID 0000.0001)                    cg2d_init_res =    5.79583735467170E-02
(PID.TID 0000.0001)                       cg2d_iters =    17
(PID.TID 0000.0001)                         cg2d_res =    3.43759765154313E-15
(PID.TID 0000.0001) // =======================================================
(PID.TID 0000.0001) // Begin MONITOR dynamic field statistics
(PID.TID 0000.0001) // =======================================================
(PID.TID 0000.0001) %MON time_tsnumber                =                    41
(PID.TID 0000.0001) %MON time_secondsf                =   1.4760000000000E+05
(PID.TID 0000.0001) %MON dynstat_eta_max              =   6.6628464850003E-03
(PID.TID 0000.0001) %MON dynstat_eta_min              =  -6.7510821842314E-03
(PID.TID 0000.0001) %MON dynstat_eta_mean             =  -5.7735014706850E-19
(PID.TID 0000.0001) %MON dynstat_eta_sd               =   4.0772454143207E-03
(PID.TID 0000.0001) %MON dynstat_eta_del2             =   1.0106162572386E-03
(PID.TID 0000.0001) %MON dynstat_uvel_max             =   7.0803952229378E-03
(PID.TID 0000.0001) %MON dynstat_uvel_min             =  -2.3811756281596E-03
(PID.TID 0000.0001) %MON dynstat_uvel_mean            =   1.6078586811189E-03
(PID.TID 0000.0001) %MON dynstat_uvel_sd              =   1.0912410320308E-03
(PID.TID 0000.0001) %MON dynstat_uvel_del2            =   6.8943837926478E-04
(PID.TID 0000.0001) %MON dynstat_vvel_max             =   2.0374153532881E-02
(PID.TID 0000.0001) %MON dynstat_vvel_min             =  -1.9148854861976E-03
(PID.TID 0000.0001) %MON dynstat_vvel_mean            =  -1.3675084304966E-06
(PID.TID 0000.0001) %MON dynstat_vvel_sd              =   2.7064713650354E-03
(PID.TID 0000.0001) %MON dynstat_vvel_del2            =   1.3544419184446E-03
(PID.TID 0000.0001) %MON dynstat_wvel_max             =   1.2605059473525E-05
(PID.TID 0000.0001) %MON dynstat_wvel_min             =  -1.2218760123776E-05
(PID.TID 0000.0001) %MON dynstat_wvel_mean            =   5.1035645550915E-23
(PID.TID 0000.0001) %MON dynstat_wvel_sd              =   7.0676226551203E-06
(PID.TID 0000.0001) %MON dynstat_wvel_del2            =   3.5677498979449E-06
(PID.TID 0000.0001) %MON dynstat_theta_max            =   4.0000000000000E+00
(PID.TID 0000.0001) %MON dynstat_theta_min            =   4.0000000000000E+00
(PID.TID 0000.0001) %MON dynstat_theta_mean           =   4.0000000000000E+00
(PID.TID 0000.0001) %MON dynstat_theta_sd             =   0.0000000000000E+00
(PID.TID 0000.0001) %MON dynstat_theta_del2           =   0.0000000000000E+00
(PID.TID 0000.0001) %MON dynstat_salt_max             =   3.5000000000000E+01
(PID.TID 0000.0001) %MON dynstat_salt_min             =   3.5000000000000E+01
(PID.TID 0000.0001) %MON dynstat_salt_mean            =   3.5000000000000E+01
(PID.TID 0000.0001) %MON dynstat_salt_sd              =   0.0000000000000E+00
(PID.TID 0000.0001) %MON dynstat_salt_del2            =   0.0000000000000E+00
(PID.TID 0000.0001) %MON advcfl_uvel_max              =   1.2744711401288E-04
(PID.TID 0000.0001) %MON advcfl_vvel_max              =   3.6673476359186E-04
(PID.TID 0000.0001) %MON advcfl_wvel_max              =   3.4984750918726E-04
(PID.TID 0000.0001) %MON advcfl_W_hf_max              =   7.8403179832684E-04
(PID.TID 0000.0001) %MON pe_b_mean                    =   1.8528047595014E-08
(PID.TID 0000.0001) %MON ke_max                       =   1.2650634295638E-04
(PID.TID 0000.0001) %MON ke_mean                      =   4.6348791841570E-06
(PID.TID 0000.0001) %MON ke_vol                       =   3.5207326431489E+15
(PID.TID 0000.0001) %MON vort_r_min                   =  -5.6955858356691E-08
(PID.TID 0000.0001) %MON vort_r_max                   =   3.9406362801962E-08
(PID.TID 0000.0001) %MON vort_a_mean                  =  -1.1390240000000E-04
(PID.TID 0000.0001) %MON vort_a_sd                    =   3.7003194887145E-06
(PID.TID 0000.0001) %MON vort_p_mean                  =  -2.2184161870152E-04
(PID.TID 0000.0001) %MON vort_p_sd                    =   1.8699538737480E-04
(PID.TID 0000.0001) %MON surfExpan_theta_mean         =  -2.8364866011543E-22
(PID.TID 0000.0001) %MON surfExpan_salt_mean          =  -3.1616220752539E-21
(PID.TID 0000.0001) // =======================================================
(PID.TID 0000.0001) // End MONITOR dynamic field statistics
(PID.TID 0000.0001) // =======================================================
 cg2d: Sum(rhs),rhsMax =  -3.05311331771918E-16  6.17377934916124E-02
(PID.TID 0000.0001)                    cg2d_init_res =    5.55850774892383E-02
(PID.TID 0000.0001)                       cg2d_iters =    17
(PID.TID 0000.0001)                         cg2d_res =    7.58074627474655E-15
(PID.TID 0000.0001) // =======================================================
(PID.TID 0000.0001) // Begin MONITOR dynamic field statistics
(PID.TID 0000.0001) // =======================================================
(PID.TID 0000.0001) %MON time_tsnumber                =                    42
(PID.TID 0000.0001) %MON time_secondsf                =   1.5120000000000E+05
(PID.TID 0000.0001) %MON dynstat_eta_max              =   6.6138805504834E-03
(PID.TID 0000.0001) %MON dynstat_eta_min              =  -6.6994783269182E-03
(PID.TID 0000.0001) %MON dynstat_eta_mean             =   1.3688928447664E-18
(PID.TID 0000.0001) %MON dynstat_eta_sd               =   4.0361807332023E-03
(PID.TID 0000.0001) %MON dynstat_eta_del2             =   1.0202306811587E-03
(PID.TID 0000.0001) %MON dynstat_uvel_max             =   7.1562178716433E-03
(PID.TID 0000.0001) %MON dynstat_uvel_min             =  -3.3489408129944E-03
(PID.TID 0000.0001) %MON dynstat_uvel_mean            =   1.5893485890647E-03
(PID.TID 0000.0001) %MON dynstat_uvel_sd              =   1.1537374807087E-03
(PID.TID 0000.0001) %MON dynstat_uvel_del2            =   7.6842044765668E-04
(PID.TID 0000.0001) %MON dynstat_vvel_max             =   1.9709637586964E-02
(PID.TID 0000.0001) %MON dynstat_vvel_min             =  -1.9327008525938E-03
(PID.TID 0000.0001) %MON dynstat_vvel_mean            =  -1.4834003855309E-06
(PID.TID 0000.0001) %MON dynstat_vvel_sd              =   2.6246107135023E-03
(PID.TID 0000.0001) %MON dynstat_vvel_del2            =   1.4004636517826E-03
(PID.TID 0000.0001) %MON dynstat_wvel_max             =   1.2208383271237E-05
(PID.TID 0000.0001) %MON dynstat_wvel_min             =  -1.1922735111886E-05
(PID.TID 0000.0001) %MON dynstat_wvel_mean            =   9.4795333487647E-24
(PID.TID 0000.0001) %MON dynstat_wvel_sd              =   6.8197581390677E-06
(PID.TID 0000.0001) %MON dynstat_wvel_del2            =   3.5928555068060E-06
(PID.TID 0000.0001) %MON dynstat_theta_max            =   4.0000000000000E+00
(PID.TID 0000.0001) %MON dynstat_theta_min            =   4.0000000000000E+00
(PID.TID 0000.0001) %MON dynstat_theta_mean           =   4.0000000000000E+00
(PID.TID 0000.0001) %MON dynstat_theta_sd             =   0.0000000000000E+00
(PID.TID 0000.0001) %MON dynstat_theta_del2           =   0.0000000000000E+00
(PID.TID 0000.0001) %MON dynstat_salt_max             =   3.5000000000000E+01
(PID.TID 0000.0001) %MON dynstat_salt_min             =   3.5000000000000E+01
(PID.TID 0000.0001) %MON dynstat_salt_mean            =   3.5000000000000E+01
(PID.TID 0000.0001) %MON dynstat_salt_sd              =   0.0000000000000E+00
(PID.TID 0000.0001) %MON dynstat_salt_del2            =   0.0000000000000E+00
(PID.TID 0000.0001) %MON advcfl_uvel_max              =   1.2881192168958E-04
(PID.TID 0000.0001) %MON advcfl_vvel_max              =   3.5477347656534E-04
(PID.TID 0000.0001) %MON advcfl_wvel_max              =   3.5991351873989E-04
(PID.TID 0000.0001) %MON advcfl_W_hf_max              =   7.6557983095858E-04
(PID.TID 0000.0001) %MON pe_b_mean                    =   1.8156710193671E-08
(PID.TID 0000.0001) %MON ke_max                       =   1.1794514479311E-04
(PID.TID 0000.0001) %MON ke_mean                      =   4.5117884051925E-06
(PID.TID 0000.0001) %MON ke_vol                       =   3.5207326431489E+15
(PID.TID 0000.0001) %MON vort_r_min                   =  -6.2631440158637E-08
(PID.TID 0000.0001) %MON vort_r_max                   =   4.4897938338622E-08
(PID.TID 0000.0001) %MON vort_a_mean                  =  -1.1390240000000E-04
(PID.TID 0000.0001) %MON vort_a_sd                    =   3.7002532350047E-06
(PID.TID 0000.0001) %MON vort_p_mean                  =  -2.2184161870152E-04
(PID.TID 0000.0001) %MON vort_p_sd                    =   1.8699538192548E-04
(PID.TID 0000.0001) %MON surfExpan_theta_mean         =  -6.5597305365372E-22
(PID.TID 0000.0001) %MON surfExpan_salt_mean          =  -6.1701266318437E-21
(PID.TID 0000.0001) // =======================================================
(PID.TID 0000.0001) // End MONITOR dynamic field statistics
(PID.TID 0000.0001) // =======================================================
 cg2d: Sum(rhs),rhsMax =   1.66533453693773E-16  6.33719188831750E-02
(PID.TID 0000.0001)                    cg2d_init_res =    5.39010925235925E-02
(PID.TID 0000.0001)                       cg2d_iters =    17
(PID.TID 0000.0001)                         cg2d_res =    1.12044702593816E-14
(PID.TID 0000.0001) // =======================================================
(PID.TID 0000.0001) // Begin MONITOR dynamic field statistics
(PID.TID 0000.0001) // =======================================================
(PID.TID 0000.0001) %MON time_tsnumber                =                    43
(PID.TID 0000.0001) %MON time_secondsf                =   1.5480000000000E+05
(PID.TID 0000.0001) %MON dynstat_eta_max              =   6.5523859758580E-03
(PID.TID 0000.0001) %MON dynstat_eta_min              =  -6.6345535081483E-03
(PID.TID 0000.0001) %MON dynstat_eta_mean             =  -6.6411448642612E-19
(PID.TID 0000.0001) %MON dynstat_eta_sd               =   3.9898410518589E-03
(PID.TID 0000.0001) %MON dynstat_eta_del2             =   1.0282386865430E-03
(PID.TID 0000.0001) %MON dynstat_uvel_max             =   7.3776275877199E-03
(PID.TID 0000.0001) %MON dynstat_uvel_min             =  -3.8422421916138E-03
(PID.TID 0000.0001) %MON dynstat_uvel_mean            =   1.5684835958379E-03
(PID.TID 0000.0001) %MON dynstat_uvel_sd              =   1.2036094408883E-03
(PID.TID 0000.0001) %MON dynstat_uvel_del2            =   8.2726154123777E-04
(PID.TID 0000.0001) %MON dynstat_vvel_max             =   1.8986589102787E-02
(PID.TID 0000.0001) %MON dynstat_vvel_min             =  -2.0995778824347E-03
(PID.TID 0000.0001) %MON dynstat_vvel_mean            =  -1.5905600987493E-06
(PID.TID 0000.0001) %MON dynstat_vvel_sd              =   2.5315917336293E-03
(PID.TID 0000.0001) %MON dynstat_vvel_del2            =   1.4589041919290E-03
(PID.TID 0000.0001) %MON dynstat_wvel_max             =   1.1710202012959E-05
(PID.TID 0000.0001) %MON dynstat_wvel_min             =  -1.1560440830097E-05
(PID.TID 0000.0001) %MON dynstat_wvel_mean            =   9.6666294017008E-23
(PID.TID 0000.0001) %MON dynstat_wvel_sd              =   6.5622533549242E-06
(PID.TID 0000.0001) %MON dynstat_wvel_del2            =   3.6414569163072E-06
(PID.TID 0000.0001) %MON dynstat_theta_max            =   4.0000000000000E+00
(PID.TID 0000.0001) %MON dynstat_theta_min            =   4.0000000000000E+00
(PID.TID 0000.0001) %MON dynstat_theta_mean           =   4.0000000000000E+00
(PID.TID 0000.0001) %MON dynstat_theta_sd             =   0.0000000000000E+00
(PID.TID 0000.0001) %MON dynstat_theta_del2           =   0.0000000000000E+00
(PID.TID 0000.0001) %MON dynstat_salt_max             =   3.5000000000000E+01
(PID.TID 0000.0001) %MON dynstat_salt_min             =   3.5000000000000E+01
(PID.TID 0000.0001) %MON dynstat_salt_mean            =   3.5000000000000E+01
(PID.TID 0000.0001) %MON dynstat_salt_sd              =   0.0000000000000E+00
(PID.TID 0000.0001) %MON dynstat_salt_del2            =   0.0000000000000E+00
(PID.TID 0000.0001) %MON advcfl_uvel_max              =   1.3279729657896E-04
(PID.TID 0000.0001) %MON advcfl_vvel_max              =   3.4175860385016E-04
(PID.TID 0000.0001) %MON advcfl_wvel_max              =   3.6896293525805E-04
(PID.TID 0000.0001) %MON advcfl_W_hf_max              =   7.5367060395375E-04
(PID.TID 0000.0001) %MON pe_b_mean                    =   1.7742186528959E-08
(PID.TID 0000.0001) %MON ke_max                       =   1.1198569280231E-04
(PID.TID 0000.0001) %MON ke_mean                      =   4.3577679516771E-06
(PID.TID 0000.0001) %MON ke_vol                       =   3.5207326431489E+15
(PID.TID 0000.0001) %MON vort_r_min                   =  -6.6712790544942E-08
(PID.TID 0000.0001) %MON vort_r_max                   =   4.8797039488188E-08
(PID.TID 0000.0001) %MON vort_a_mean                  =  -1.1390240000000E-04
(PID.TID 0000.0001) %MON vort_a_sd                    =   3.7001815882154E-06
(PID.TID 0000.0001) %MON vort_p_mean                  =  -2.2184161870152E-04
(PID.TID 0000.0001) %MON vort_p_sd                    =   1.8699536824115E-04
(PID.TID 0000.0001) %MON surfExpan_theta_mean         =   6.1618266045116E-22
(PID.TID 0000.0001) %MON surfExpan_salt_mean          =   6.2511062992598E-21
(PID.TID 0000.0001) // =======================================================
(PID.TID 0000.0001) // End MONITOR dynamic field statistics
(PID.TID 0000.0001) // =======================================================
 cg2d: Sum(rhs),rhsMax =  -5.55111512312578E-17  6.49706567783974E-02
(PID.TID 0000.0001)                    cg2d_init_res =    5.27619764838913E-02
(PID.TID 0000.0001)                       cg2d_iters =    17
(PID.TID 0000.0001)                         cg2d_res =    1.44254759725272E-14
(PID.TID 0000.0001) // =======================================================
(PID.TID 0000.0001) // Begin MONITOR dynamic field statistics
(PID.TID 0000.0001) // =======================================================
(PID.TID 0000.0001) %MON time_tsnumber                =                    44
(PID.TID 0000.0001) %MON time_secondsf                =   1.5840000000000E+05
(PID.TID 0000.0001) %MON dynstat_eta_max              =   6.4788670259232E-03
(PID.TID 0000.0001) %MON dynstat_eta_min              =  -6.5567673009176E-03
(PID.TID 0000.0001) %MON dynstat_eta_mean             =   1.0296935215592E-19
(PID.TID 0000.0001) %MON dynstat_eta_sd               =   3.9388493348169E-03
(PID.TID 0000.0001) %MON dynstat_eta_del2             =   1.0347107152396E-03
(PID.TID 0000.0001) %MON dynstat_uvel_max             =   7.7535848440706E-03
(PID.TID 0000.0001) %MON dynstat_uvel_min             =  -3.8309069733711E-03
(PID.TID 0000.0001) %MON dynstat_uvel_mean            =   1.5454123920993E-03
(PID.TID 0000.0001) %MON dynstat_uvel_sd              =   1.2329822204680E-03
(PID.TID 0000.0001) %MON dynstat_uvel_del2            =   8.6254105470249E-04
(PID.TID 0000.0001) %MON dynstat_vvel_max             =   1.8292310370123E-02
(PID.TID 0000.0001) %MON dynstat_vvel_min             =  -2.3015413369578E-03
(PID.TID 0000.0001) %MON dynstat_vvel_mean            =  -1.6883444993174E-06
(PID.TID 0000.0001) %MON dynstat_vvel_sd              =   2.4503387298790E-03
(PID.TID 0000.0001) %MON dynstat_vvel_del2            =   1.5228960999935E-03
(PID.TID 0000.0001) %MON dynstat_wvel_max             =   1.1215849810111E-05
(PID.TID 0000.0001) %MON dynstat_wvel_min             =  -1.1216427519956E-05
(PID.TID 0000.0001) %MON dynstat_wvel_mean            =   1.5630835800299E-22
(PID.TID 0000.0001) %MON dynstat_wvel_sd              =   6.3707950524472E-06
(PID.TID 0000.0001) %MON dynstat_wvel_del2            =   3.7083890919755E-06
(PID.TID 0000.0001) %MON dynstat_theta_max            =   4.0000000000000E+00
(PID.TID 0000.0001) %MON dynstat_theta_min            =   4.0000000000000E+00
(PID.TID 0000.0001) %MON dynstat_theta_mean           =   4.0000000000000E+00
(PID.TID 0000.0001) %MON dynstat_theta_sd             =   0.0000000000000E+00
(PID.TID 0000.0001) %MON dynstat_theta_del2           =   0.0000000000000E+00
(PID.TID 0000.0001) %MON dynstat_salt_max             =   3.5000000000000E+01
(PID.TID 0000.0001) %MON dynstat_salt_min             =   3.5000000000000E+01
(PID.TID 0000.0001) %MON dynstat_salt_mean            =   3.5000000000000E+01
(PID.TID 0000.0001) %MON dynstat_salt_sd              =   0.0000000000000E+00
(PID.TID 0000.0001) %MON dynstat_salt_del2            =   0.0000000000000E+00
(PID.TID 0000.0001) %MON advcfl_uvel_max              =   1.3956452719327E-04
(PID.TID 0000.0001) %MON advcfl_vvel_max              =   3.2926158666221E-04
(PID.TID 0000.0001) %MON advcfl_wvel_max              =   3.7700678581206E-04
(PID.TID 0000.0001) %MON advcfl_W_hf_max              =   7.7824257345968E-04
(PID.TID 0000.0001) %MON pe_b_mean                    =   1.7291580449244E-08
(PID.TID 0000.0001) %MON ke_max                       =   1.0802787239792E-04
(PID.TID 0000.0001) %MON ke_mean                      =   4.2058333369417E-06
(PID.TID 0000.0001) %MON ke_vol                       =   3.5207326431489E+15
(PID.TID 0000.0001) %MON vort_r_min                   =  -6.9084411287562E-08
(PID.TID 0000.0001) %MON vort_r_max                   =   5.0990533321354E-08
(PID.TID 0000.0001) %MON vort_a_mean                  =  -1.1390240000000E-04
(PID.TID 0000.0001) %MON vort_a_sd                    =   3.7001039647982E-06
(PID.TID 0000.0001) %MON vort_p_mean                  =  -2.2184161870152E-04
(PID.TID 0000.0001) %MON vort_p_sd                    =   1.8699534484713E-04
(PID.TID 0000.0001) %MON surfExpan_theta_mean         =   3.6493474908639E-22
(PID.TID 0000.0001) %MON surfExpan_salt_mean          =   4.6578918500018E-21
(PID.TID 0000.0001) // =======================================================
(PID.TID 0000.0001) // End MONITOR dynamic field statistics
(PID.TID 0000.0001) // =======================================================
 cg2d: Sum(rhs),rhsMax =  -5.27355936696949E-16  6.65620861371268E-02
(PID.TID 0000.0001)                    cg2d_init_res =    5.19332618256575E-02
(PID.TID 0000.0001)                       cg2d_iters =    17
(PID.TID 0000.0001)                         cg2d_res =    1.53361132631344E-14
(PID.TID 0000.0001) // =======================================================
(PID.TID 0000.0001) // Begin MONITOR dynamic field statistics
(PID.TID 0000.0001) // =======================================================
(PID.TID 0000.0001) %MON time_tsnumber                =                    45
(PID.TID 0000.0001) %MON time_secondsf                =   1.6200000000000E+05
(PID.TID 0000.0001) %MON dynstat_eta_max              =   6.3943257159677E-03
(PID.TID 0000.0001) %MON dynstat_eta_min              =  -6.4671703578459E-03
(PID.TID 0000.0001) %MON dynstat_eta_mean             =   2.6996247470379E-18
(PID.TID 0000.0001) %MON dynstat_eta_sd               =   3.8839318856425E-03
(PID.TID 0000.0001) %MON dynstat_eta_del2             =   1.0397790399888E-03
(PID.TID 0000.0001) %MON dynstat_uvel_max             =   8.2647843787542E-03
(PID.TID 0000.0001) %MON dynstat_uvel_min             =  -3.3632951757284E-03
(PID.TID 0000.0001) %MON dynstat_uvel_mean            =   1.5203256162848E-03
(PID.TID 0000.0001) %MON dynstat_uvel_sd              =   1.2470523814631E-03
(PID.TID 0000.0001) %MON dynstat_uvel_del2            =   8.7591410227069E-04
(PID.TID 0000.0001) %MON dynstat_vvel_max             =   1.7755604132156E-02
(PID.TID 0000.0001) %MON dynstat_vvel_min             =  -2.4734526326389E-03
(PID.TID 0000.0001) %MON dynstat_vvel_mean            =  -1.7765520862406E-06
(PID.TID 0000.0001) %MON dynstat_vvel_sd              =   2.3966586016897E-03
(PID.TID 0000.0001) %MON dynstat_vvel_del2            =   1.5861526019595E-03
(PID.TID 0000.0001) %MON dynstat_wvel_max             =   1.0986886262158E-05
(PID.TID 0000.0001) %MON dynstat_wvel_min             =  -1.1154496096453E-05
(PID.TID 0000.0001) %MON dynstat_wvel_mean            =  -5.3800509444305E-23
(PID.TID 0000.0001) %MON dynstat_wvel_sd              =   6.2953354510632E-06
(PID.TID 0000.0001) %MON dynstat_wvel_del2            =   3.7933370220966E-06
(PID.TID 0000.0001) %MON dynstat_theta_max            =   4.0000000000000E+00
(PID.TID 0000.0001) %MON dynstat_theta_min            =   4.0000000000000E+00
(PID.TID 0000.0001) %MON dynstat_theta_mean           =   4.0000000000000E+00
(PID.TID 0000.0001) %MON dynstat_theta_sd             =   0.0000000000000E+00
(PID.TID 0000.0001) %MON dynstat_theta_del2           =   0.0000000000000E+00
(PID.TID 0000.0001) %MON dynstat_salt_max             =   3.5000000000000E+01
(PID.TID 0000.0001) %MON dynstat_salt_min             =   3.5000000000000E+01
(PID.TID 0000.0001) %MON dynstat_salt_mean            =   3.5000000000000E+01
(PID.TID 0000.0001) %MON dynstat_salt_sd              =   0.0000000000000E+00
(PID.TID 0000.0001) %MON dynstat_salt_del2            =   0.0000000000000E+00
(PID.TID 0000.0001) %MON advcfl_uvel_max              =   1.4876611881758E-04
(PID.TID 0000.0001) %MON advcfl_vvel_max              =   3.1960087437881E-04
(PID.TID 0000.0001) %MON advcfl_wvel_max              =   3.8415755165712E-04
(PID.TID 0000.0001) %MON advcfl_W_hf_max              =   8.0312371894460E-04
(PID.TID 0000.0001) %MON pe_b_mean                    =   1.6812765729489E-08
(PID.TID 0000.0001) %MON ke_max                       =   1.0683086834358E-04
(PID.TID 0000.0001) %MON ke_mean                      =   4.0872556642687E-06
(PID.TID 0000.0001) %MON ke_vol                       =   3.5207326431489E+15
(PID.TID 0000.0001) %MON vort_r_min                   =  -6.9875097169130E-08
(PID.TID 0000.0001) %MON vort_r_max                   =   5.1607065100452E-08
(PID.TID 0000.0001) %MON vort_a_mean                  =  -1.1390240000000E-04
(PID.TID 0000.0001) %MON vort_a_sd                    =   3.7000207711573E-06
(PID.TID 0000.0001) %MON vort_p_mean                  =  -2.2184161870152E-04
(PID.TID 0000.0001) %MON vort_p_sd                    =   1.8699531180389E-04
(PID.TID 0000.0001) %MON surfExpan_theta_mean         =  -5.0022208597511E-23
(PID.TID 0000.0001) %MON surfExpan_salt_mean          =  -2.1762458501939E-21
(PID.TID 0000.0001) // =======================================================
(PID.TID 0000.0001) // End MONITOR dynamic field statistics
(PID.TID 0000.0001) // =======================================================
 cg2d: Sum(rhs),rhsMax =  -6.93889390390723E-16  6.81678818718649E-02
(PID.TID 0000.0001)                    cg2d_init_res =    5.11680360160870E-02
(PID.TID 0000.0001)                       cg2d_iters =    17
(PID.TID 0000.0001)                         cg2d_res =    1.46649227570052E-14
(PID.TID 0000.0001) // =======================================================
(PID.TID 0000.0001) // Begin MONITOR dynamic field statistics
(PID.TID 0000.0001) // =======================================================
(PID.TID 0000.0001) %MON time_tsnumber                =                    46
(PID.TID 0000.0001) %MON time_secondsf                =   1.6560000000000E+05
(PID.TID 0000.0001) %MON dynstat_eta_max              =   6.3001573768397E-03
(PID.TID 0000.0001) %MON dynstat_eta_min              =  -6.3672902258481E-03
(PID.TID 0000.0001) %MON dynstat_eta_mean             =   3.8487138226628E-18
(PID.TID 0000.0001) %MON dynstat_eta_sd               =   3.8258652209841E-03
(PID.TID 0000.0001) %MON dynstat_eta_del2             =   1.0436157737522E-03
(PID.TID 0000.0001) %MON dynstat_uvel_max             =   8.8673352902639E-03
(PID.TID 0000.0001) %MON dynstat_uvel_min             =  -2.5544366217652E-03
(PID.TID 0000.0001) %MON dynstat_uvel_mean            =   1.4934440362753E-03
(PID.TID 0000.0001) %MON dynstat_uvel_sd              =   1.2594160890062E-03
(PID.TID 0000.0001) %MON dynstat_uvel_del2            =   8.7195019596624E-04
(PID.TID 0000.0001) %MON dynstat_vvel_max             =   1.7477837678054E-02
(PID.TID 0000.0001) %MON dynstat_vvel_min             =  -2.5905680258347E-03
(PID.TID 0000.0001) %MON dynstat_vvel_mean            =  -1.8554107543070E-06
(PID.TID 0000.0001) %MON dynstat_vvel_sd              =   2.3768292791424E-03
(PID.TID 0000.0001) %MON dynstat_vvel_del2            =   1.6434966264669E-03
(PID.TID 0000.0001) %MON dynstat_wvel_max             =   1.1399341849903E-05
(PID.TID 0000.0001) %MON dynstat_wvel_min             =  -1.1482032453761E-05
(PID.TID 0000.0001) %MON dynstat_wvel_mean            =  -4.3863630188363E-24
(PID.TID 0000.0001) %MON dynstat_wvel_sd              =   6.3488839377734E-06
(PID.TID 0000.0001) %MON dynstat_wvel_del2            =   3.8958054927750E-06
(PID.TID 0000.0001) %MON dynstat_theta_max            =   4.0000000000000E+00
(PID.TID 0000.0001) %MON dynstat_theta_min            =   4.0000000000000E+00
(PID.TID 0000.0001) %MON dynstat_theta_mean           =   4.0000000000000E+00
(PID.TID 0000.0001) %MON dynstat_theta_sd             =   0.0000000000000E+00
(PID.TID 0000.0001) %MON dynstat_theta_del2           =   0.0000000000000E+00
(PID.TID 0000.0001) %MON dynstat_salt_max             =   3.5000000000000E+01
(PID.TID 0000.0001) %MON dynstat_salt_min             =   3.5000000000000E+01
(PID.TID 0000.0001) %MON dynstat_salt_mean            =   3.5000000000000E+01
(PID.TID 0000.0001) %MON dynstat_salt_sd              =   0.0000000000000E+00
(PID.TID 0000.0001) %MON dynstat_salt_del2            =   0.0000000000000E+00
(PID.TID 0000.0001) %MON advcfl_uvel_max              =   1.5961203522475E-04
(PID.TID 0000.0001) %MON advcfl_vvel_max              =   3.1460107820497E-04
(PID.TID 0000.0001) %MON advcfl_wvel_max              =   3.9060509085084E-04
(PID.TID 0000.0001) %MON advcfl_W_hf_max              =   8.2670633667077E-04
(PID.TID 0000.0001) %MON pe_b_mean                    =   1.6313805671082E-08
(PID.TID 0000.0001) %MON ke_max                       =   1.0899250334434E-04
(PID.TID 0000.0001) %MON ke_mean                      =   4.0267473116434E-06
(PID.TID 0000.0001) %MON ke_vol                       =   3.5207326431489E+15
(PID.TID 0000.0001) %MON vort_r_min                   =  -6.9419788255923E-08
(PID.TID 0000.0001) %MON vort_r_max                   =   5.0978872552021E-08
(PID.TID 0000.0001) %MON vort_a_mean                  =  -1.1390240000000E-04
(PID.TID 0000.0001) %MON vort_a_sd                    =   3.6999332836639E-06
(PID.TID 0000.0001) %MON vort_p_mean                  =  -2.2184161870152E-04
(PID.TID 0000.0001) %MON vort_p_sd                    =   1.8699527058859E-04
(PID.TID 0000.0001) %MON surfExpan_theta_mean         =  -2.5806912162807E-22
(PID.TID 0000.0001) %MON surfExpan_salt_mean          =  -1.8689361169777E-21
(PID.TID 0000.0001) // =======================================================
(PID.TID 0000.0001) // End MONITOR dynamic field statistics
(PID.TID 0000.0001) // =======================================================
 cg2d: Sum(rhs),rhsMax =  -1.24900090270330E-15  6.97997402975090E-02
(PID.TID 0000.0001)                    cg2d_init_res =    5.02741521482365E-02
(PID.TID 0000.0001)                       cg2d_iters =    17
(PID.TID 0000.0001)                         cg2d_res =    1.27471470783955E-14
(PID.TID 0000.0001) // =======================================================
(PID.TID 0000.0001) // Begin MONITOR dynamic field statistics
(PID.TID 0000.0001) // =======================================================
(PID.TID 0000.0001) %MON time_tsnumber                =                    47
(PID.TID 0000.0001) %MON time_secondsf                =   1.6920000000000E+05
(PID.TID 0000.0001) %MON dynstat_eta_max              =   6.1979919000489E-03
(PID.TID 0000.0001) %MON dynstat_eta_min              =  -6.2589477030546E-03
(PID.TID 0000.0001) %MON dynstat_eta_mean             =   6.9239991717041E-18
(PID.TID 0000.0001) %MON dynstat_eta_sd               =   3.7654136713419E-03
(PID.TID 0000.0001) %MON dynstat_eta_del2             =   1.0464058066962E-03
(PID.TID 0000.0001) %MON dynstat_uvel_max             =   9.5002047020774E-03
(PID.TID 0000.0001) %MON dynstat_uvel_min             =  -1.5645842875203E-03
(PID.TID 0000.0001) %MON dynstat_uvel_mean            =   1.4650027523554E-03
(PID.TID 0000.0001) %MON dynstat_uvel_sd              =   1.2834232749310E-03
(PID.TID 0000.0001) %MON dynstat_uvel_del2            =   8.5723864769567E-04
(PID.TID 0000.0001) %MON dynstat_vvel_max             =   1.7517963668908E-02
(PID.TID 0000.0001) %MON dynstat_vvel_min             =  -2.9288419125156E-03
(PID.TID 0000.0001) %MON dynstat_vvel_mean            =  -1.9255030466367E-06
(PID.TID 0000.0001) %MON dynstat_vvel_sd              =   2.3900650945813E-03
(PID.TID 0000.0001) %MON dynstat_vvel_del2            =   1.6914626647489E-03
(PID.TID 0000.0001) %MON dynstat_wvel_max             =   1.1749053151279E-05
(PID.TID 0000.0001) %MON dynstat_wvel_min             =  -1.1775604908870E-05
(PID.TID 0000.0001) %MON dynstat_wvel_mean            =   1.8938278247203E-23
(PID.TID 0000.0001) %MON dynstat_wvel_sd              =   6.5181225620986E-06
(PID.TID 0000.0001) %MON dynstat_wvel_del2            =   4.0146887523042E-06
(PID.TID 0000.0001) %MON dynstat_theta_max            =   4.0000000000000E+00
(PID.TID 0000.0001) %MON dynstat_theta_min            =   4.0000000000000E+00
(PID.TID 0000.0001) %MON dynstat_theta_mean           =   4.0000000000000E+00
(PID.TID 0000.0001) %MON dynstat_theta_sd             =   0.0000000000000E+00
(PID.TID 0000.0001) %MON dynstat_theta_del2           =   0.0000000000000E+00
(PID.TID 0000.0001) %MON dynstat_salt_max             =   3.5000000000000E+01
(PID.TID 0000.0001) %MON dynstat_salt_min             =   3.5000000000000E+01
(PID.TID 0000.0001) %MON dynstat_salt_mean            =   3.5000000000000E+01
(PID.TID 0000.0001) %MON dynstat_salt_sd              =   0.0000000000000E+00
(PID.TID 0000.0001) %MON dynstat_salt_del2            =   0.0000000000000E+00
(PID.TID 0000.0001) %MON advcfl_uvel_max              =   1.7100368463739E-04
(PID.TID 0000.0001) %MON advcfl_vvel_max              =   3.1532334604035E-04
(PID.TID 0000.0001) %MON advcfl_wvel_max              =   3.9658157730525E-04
(PID.TID 0000.0001) %MON advcfl_W_hf_max              =   8.4784355343866E-04
(PID.TID 0000.0001) %MON pe_b_mean                    =   1.5802337824412E-08
(PID.TID 0000.0001) %MON ke_max                       =   1.1454398399648E-04
(PID.TID 0000.0001) %MON ke_mean                      =   4.0388597574835E-06
(PID.TID 0000.0001) %MON ke_vol                       =   3.5207326431489E+15
(PID.TID 0000.0001) %MON vort_r_min                   =  -6.8192916900686E-08
(PID.TID 0000.0001) %MON vort_r_max                   =   4.9575590987366E-08
(PID.TID 0000.0001) %MON vort_a_mean                  =  -1.1390240000000E-04
(PID.TID 0000.0001) %MON vort_a_sd                    =   3.6998433941707E-06
(PID.TID 0000.0001) %MON vort_p_mean                  =  -2.2184161870152E-04
(PID.TID 0000.0001) %MON vort_p_sd                    =   1.8699522377378E-04
(PID.TID 0000.0001) %MON surfExpan_theta_mean         =   6.2982508097775E-22
(PID.TID 0000.0001) %MON surfExpan_salt_mean          =   3.4850433650035E-21
(PID.TID 0000.0001) // =======================================================
(PID.TID 0000.0001) // End MONITOR dynamic field statistics
(PID.TID 0000.0001) // =======================================================
 cg2d: Sum(rhs),rhsMax =  -1.41553435639707E-15  7.14574674476168E-02
(PID.TID 0000.0001)                    cg2d_init_res =    4.91470961368480E-02
(PID.TID 0000.0001)                       cg2d_iters =    17
(PID.TID 0000.0001)                         cg2d_res =    9.95460523536915E-15
(PID.TID 0000.0001) // =======================================================
(PID.TID 0000.0001) // Begin MONITOR dynamic field statistics
(PID.TID 0000.0001) // =======================================================
(PID.TID 0000.0001) %MON time_tsnumber                =                    48
(PID.TID 0000.0001) %MON time_secondsf                =   1.7280000000000E+05
(PID.TID 0000.0001) %MON dynstat_eta_max              =   6.0895055853339E-03
(PID.TID 0000.0001) %MON dynstat_eta_min              =  -6.1440349179192E-03
(PID.TID 0000.0001) %MON dynstat_eta_mean             =   8.4688421338797E-18
(PID.TID 0000.0001) %MON dynstat_eta_sd               =   3.7032683424106E-03
(PID.TID 0000.0001) %MON dynstat_eta_del2             =   1.0483190732936E-03
(PID.TID 0000.0001) %MON dynstat_uvel_max             =   1.0095078481769E-02
(PID.TID 0000.0001) %MON dynstat_uvel_min             =  -5.7200661076244E-04
(PID.TID 0000.0001) %MON dynstat_uvel_mean            =   1.4352339197162E-03
(PID.TID 0000.0001) %MON dynstat_uvel_sd              =   1.3237243466120E-03
(PID.TID 0000.0001) %MON dynstat_uvel_del2            =   8.3996806623810E-04
(PID.TID 0000.0001) %MON dynstat_vvel_max             =   1.7884843651845E-02
(PID.TID 0000.0001) %MON dynstat_vvel_min             =  -3.0315145321746E-03
(PID.TID 0000.0001) %MON dynstat_vvel_mean            =  -1.9876446427424E-06
(PID.TID 0000.0001) %MON dynstat_vvel_sd              =   2.4331138541706E-03
(PID.TID 0000.0001) %MON dynstat_vvel_del2            =   1.7285984917016E-03
(PID.TID 0000.0001) %MON dynstat_wvel_max             =   1.2022171137432E-05
(PID.TID 0000.0001) %MON dynstat_wvel_min             =  -1.2027094829669E-05
(PID.TID 0000.0001) %MON dynstat_wvel_mean            =  -1.0959671011993E-22
(PID.TID 0000.0001) %MON dynstat_wvel_sd              =   6.7839328728181E-06
(PID.TID 0000.0001) %MON dynstat_wvel_del2            =   4.1480193581238E-06
(PID.TID 0000.0001) %MON dynstat_theta_max            =   4.0000000000000E+00
(PID.TID 0000.0001) %MON dynstat_theta_min            =   4.0000000000000E+00
(PID.TID 0000.0001) %MON dynstat_theta_mean           =   4.0000000000000E+00
(PID.TID 0000.0001) %MON dynstat_theta_sd             =   0.0000000000000E+00
(PID.TID 0000.0001) %MON dynstat_theta_del2           =   0.0000000000000E+00
(PID.TID 0000.0001) %MON dynstat_salt_max             =   3.5000000000000E+01
(PID.TID 0000.0001) %MON dynstat_salt_min             =   3.5000000000000E+01
(PID.TID 0000.0001) %MON dynstat_salt_mean            =   3.5000000000000E+01
(PID.TID 0000.0001) %MON dynstat_salt_sd              =   0.0000000000000E+00
(PID.TID 0000.0001) %MON dynstat_salt_del2            =   0.0000000000000E+00
(PID.TID 0000.0001) %MON advcfl_uvel_max              =   1.8171141267184E-04
(PID.TID 0000.0001) %MON advcfl_vvel_max              =   3.2192718573322E-04
(PID.TID 0000.0001) %MON advcfl_wvel_max              =   4.0232122657502E-04
(PID.TID 0000.0001) %MON advcfl_W_hf_max              =   8.6595082773617E-04
(PID.TID 0000.0001) %MON pe_b_mean                    =   1.5285030756514E-08
(PID.TID 0000.0001) %MON ke_max                       =   1.2300111860414E-04
(PID.TID 0000.0001) %MON ke_mean                      =   4.1260888918418E-06
(PID.TID 0000.0001) %MON ke_vol                       =   3.5207326431489E+15
(PID.TID 0000.0001) %MON vort_r_min                   =  -6.6725075529081E-08
(PID.TID 0000.0001) %MON vort_r_max                   =   5.0475392408845E-08
(PID.TID 0000.0001) %MON vort_a_mean                  =  -1.1390240000000E-04
(PID.TID 0000.0001) %MON vort_a_sd                    =   3.6997532753628E-06
(PID.TID 0000.0001) %MON vort_p_mean                  =  -2.2184161870152E-04
(PID.TID 0000.0001) %MON vort_p_sd                    =   1.8699517456439E-04
(PID.TID 0000.0001) %MON surfExpan_theta_mean         =  -1.7280399333686E-22
(PID.TID 0000.0001) %MON surfExpan_salt_mean          =  -3.9430902987192E-21
(PID.TID 0000.0001) // =======================================================
(PID.TID 0000.0001) // End MONITOR dynamic field statistics
(PID.TID 0000.0001) // =======================================================
 cg2d: Sum(rhs),rhsMax =  -1.58206781009085E-15  7.31289635194147E-02
(PID.TID 0000.0001)                    cg2d_init_res =    4.77686974629970E-02
(PID.TID 0000.0001)                       cg2d_iters =    17
(PID.TID 0000.0001)                         cg2d_res =    6.72311844859911E-15
(PID.TID 0000.0001) // =======================================================
(PID.TID 0000.0001) // Begin MONITOR dynamic field statistics
(PID.TID 0000.0001) // =======================================================
(PID.TID 0000.0001) %MON time_tsnumber                =                    49
(PID.TID 0000.0001) %MON time_secondsf                =   1.7640000000000E+05
(PID.TID 0000.0001) %MON dynstat_eta_max              =   5.9762320385529E-03
(PID.TID 0000.0001) %MON dynstat_eta_min              =  -6.0242916321254E-03
(PID.TID 0000.0001) %MON dynstat_eta_mean             =   9.4628310762346E-18
(PID.TID 0000.0001) %MON dynstat_eta_sd               =   3.6399983148912E-03
(PID.TID 0000.0001) %MON dynstat_eta_del2             =   1.0494865359098E-03
(PID.TID 0000.0001) %MON dynstat_uvel_max             =   1.0586990003548E-02
(PID.TID 0000.0001) %MON dynstat_uvel_min             =  -5.2489718860668E-05
(PID.TID 0000.0001) %MON dynstat_uvel_mean            =   1.4043506520764E-03
(PID.TID 0000.0001) %MON dynstat_uvel_sd              =   1.3738671819680E-03
(PID.TID 0000.0001) %MON dynstat_uvel_del2            =   8.2769213154646E-04
(PID.TID 0000.0001) %MON dynstat_vvel_max             =   1.8537681031222E-02
(PID.TID 0000.0001) %MON dynstat_vvel_min             =  -2.6870946581704E-03
(PID.TID 0000.0001) %MON dynstat_vvel_mean            =  -2.0427372637923E-06
(PID.TID 0000.0001) %MON dynstat_vvel_sd              =   2.5028329318220E-03
(PID.TID 0000.0001) %MON dynstat_vvel_del2            =   1.7554408072348E-03
(PID.TID 0000.0001) %MON dynstat_wvel_max             =   1.2218616124001E-05
(PID.TID 0000.0001) %MON dynstat_wvel_min             =  -1.2236331174856E-05
(PID.TID 0000.0001) %MON dynstat_wvel_mean            =   1.0600030821349E-22
(PID.TID 0000.0001) %MON dynstat_wvel_sd              =   7.1326086634509E-06
(PID.TID 0000.0001) %MON dynstat_wvel_del2            =   4.2935738194847E-06
(PID.TID 0000.0001) %MON dynstat_theta_max            =   4.0000000000000E+00
(PID.TID 0000.0001) %MON dynstat_theta_min            =   4.0000000000000E+00
(PID.TID 0000.0001) %MON dynstat_theta_mean           =   4.0000000000000E+00
(PID.TID 0000.0001) %MON dynstat_theta_sd             =   0.0000000000000E+00
(PID.TID 0000.0001) %MON dynstat_theta_del2           =   0.0000000000000E+00
(PID.TID 0000.0001) %MON dynstat_salt_max             =   3.5000000000000E+01
(PID.TID 0000.0001) %MON dynstat_salt_min             =   3.5000000000000E+01
(PID.TID 0000.0001) %MON dynstat_salt_mean            =   3.5000000000000E+01
(PID.TID 0000.0001) %MON dynstat_salt_sd              =   0.0000000000000E+00
(PID.TID 0000.0001) %MON dynstat_salt_del2            =   0.0000000000000E+00
(PID.TID 0000.0001) %MON advcfl_uvel_max              =   1.9056582006386E-04
(PID.TID 0000.0001) %MON advcfl_vvel_max              =   3.3367825856200E-04
(PID.TID 0000.0001) %MON advcfl_wvel_max              =   4.0802121422405E-04
(PID.TID 0000.0001) %MON advcfl_W_hf_max              =   8.8101584458966E-04
(PID.TID 0000.0001) %MON pe_b_mean                    =   1.4767205446045E-08
(PID.TID 0000.0001) %MON ke_max                       =   1.3346580795316E-04
(PID.TID 0000.0001) %MON ke_mean                      =   4.2789222153587E-06
(PID.TID 0000.0001) %MON ke_vol                       =   3.5207326431489E+15
(PID.TID 0000.0001) %MON vort_r_min                   =  -6.5516695915028E-08
(PID.TID 0000.0001) %MON vort_r_max                   =   5.2934950017738E-08
(PID.TID 0000.0001) %MON vort_a_mean                  =  -1.1390240000000E-04
(PID.TID 0000.0001) %MON vort_a_sd                    =   3.6996650295706E-06
(PID.TID 0000.0001) %MON vort_p_mean                  =  -2.2184161870152E-04
(PID.TID 0000.0001) %MON vort_p_sd                    =   1.8699512627244E-04
(PID.TID 0000.0001) %MON surfExpan_theta_mean         =   1.1175416148035E-21
(PID.TID 0000.0001) %MON surfExpan_salt_mean          =   8.8375351481318E-21
(PID.TID 0000.0001) // =======================================================
(PID.TID 0000.0001) // End MONITOR dynamic field statistics
(PID.TID 0000.0001) // =======================================================
 cg2d: Sum(rhs),rhsMax =  -1.66533453693773E-15  7.47920407054669E-02
(PID.TID 0000.0001)                    cg2d_init_res =    4.61857011538286E-02
(PID.TID 0000.0001)                       cg2d_iters =    17
(PID.TID 0000.0001)                         cg2d_res =    3.57038277137295E-15
(PID.TID 0000.0001) // =======================================================
(PID.TID 0000.0001) // Begin MONITOR dynamic field statistics
(PID.TID 0000.0001) // =======================================================
(PID.TID 0000.0001) %MON time_tsnumber                =                    50
(PID.TID 0000.0001) %MON time_secondsf                =   1.8000000000000E+05
(PID.TID 0000.0001) %MON dynstat_eta_max              =   5.8594003964166E-03
(PID.TID 0000.0001) %MON dynstat_eta_min              =  -5.9011150850612E-03
(PID.TID 0000.0001) %MON dynstat_eta_mean             =   1.0081881191581E-17
(PID.TID 0000.0001) %MON dynstat_eta_sd               =   3.5760224591369E-03
(PID.TID 0000.0001) %MON dynstat_eta_del2             =   1.0499835442508E-03
(PID.TID 0000.0001) %MON dynstat_uvel_max             =   1.0924039215869E-02
(PID.TID 0000.0001) %MON dynstat_uvel_min             =  -1.0082989269277E-04
(PID.TID 0000.0001) %MON dynstat_uvel_mean            =   1.3725345121743E-03
(PID.TID 0000.0001) %MON dynstat_uvel_sd              =   1.4214104256502E-03
(PID.TID 0000.0001) %MON dynstat_uvel_del2            =   8.2607580390532E-04
(PID.TID 0000.0001) %MON dynstat_vvel_max             =   1.9394076196027E-02
(PID.TID 0000.0001) %MON dynstat_vvel_min             =  -2.3379798656219E-03
(PID.TID 0000.0001) %MON dynstat_vvel_mean            =  -2.0916187538470E-06
(PID.TID 0000.0001) %MON dynstat_vvel_sd              =   2.5951901891580E-03
(PID.TID 0000.0001) %MON dynstat_vvel_del2            =   1.7741900575983E-03
(PID.TID 0000.0001) %MON dynstat_wvel_max             =   1.2350350573949E-05
(PID.TID 0000.0001) %MON dynstat_wvel_min             =  -1.2476178289114E-05
(PID.TID 0000.0001) %MON dynstat_wvel_mean            =   6.5151003322431E-23
(PID.TID 0000.0001) %MON dynstat_wvel_sd              =   7.5514248776845E-06
(PID.TID 0000.0001) %MON dynstat_wvel_del2            =   4.4485347162990E-06
(PID.TID 0000.0001) %MON dynstat_theta_max            =   4.0000000000000E+00
(PID.TID 0000.0001) %MON dynstat_theta_min            =   4.0000000000000E+00
(PID.TID 0000.0001) %MON dynstat_theta_mean           =   4.0000000000000E+00
(PID.TID 0000.0001) %MON dynstat_theta_sd             =   0.0000000000000E+00
(PID.TID 0000.0001) %MON dynstat_theta_del2           =   0.0000000000000E+00
(PID.TID 0000.0001) %MON dynstat_salt_max             =   3.5000000000000E+01
(PID.TID 0000.0001) %MON dynstat_salt_min             =   3.5000000000000E+01
(PID.TID 0000.0001) %MON dynstat_salt_mean            =   3.5000000000000E+01
(PID.TID 0000.0001) %MON dynstat_salt_sd              =   0.0000000000000E+00
(PID.TID 0000.0001) %MON dynstat_salt_del2            =   0.0000000000000E+00
(PID.TID 0000.0001) %MON advcfl_uvel_max              =   1.9663270588565E-04
(PID.TID 0000.0001) %MON advcfl_vvel_max              =   3.4909337152849E-04
(PID.TID 0000.0001) %MON advcfl_wvel_max              =   4.1380984361047E-04
(PID.TID 0000.0001) %MON advcfl_W_hf_max              =   8.9352141166108E-04
(PID.TID 0000.0001) %MON pe_b_mean                    =   1.4252676478262E-08
(PID.TID 0000.0001) %MON ke_max                       =   1.4475501132927E-04
(PID.TID 0000.0001) %MON ke_mean                      =   4.4777604774175E-06
(PID.TID 0000.0001) %MON ke_vol                       =   3.5207326431489E+15
(PID.TID 0000.0001) %MON vort_r_min                   =  -6.4962096127481E-08
(PID.TID 0000.0001) %MON vort_r_max                   =   5.4620196079346E-08
(PID.TID 0000.0001) %MON vort_a_mean                  =  -1.1390240000000E-04
(PID.TID 0000.0001) %MON vort_a_sd                    =   3.6995803789309E-06
(PID.TID 0000.0001) %MON vort_p_mean                  =  -2.2184161870152E-04
(PID.TID 0000.0001) %MON vort_p_sd                    =   1.8699508181358E-04
(PID.TID 0000.0001) %MON surfExpan_theta_mean         =   5.0590642786119E-22
(PID.TID 0000.0001) %MON surfExpan_salt_mean          =   5.9257221352027E-21
(PID.TID 0000.0001) // =======================================================
(PID.TID 0000.0001) // End MONITOR dynamic field statistics
(PID.TID 0000.0001) // =======================================================
 cg2d: Sum(rhs),rhsMax =  -1.74860126378462E-15  7.64177411555024E-02
(PID.TID 0000.0001)                    cg2d_init_res =    4.44839800119190E-02
(PID.TID 0000.0001)                       cg2d_iters =    17
(PID.TID 0000.0001)                         cg2d_res =    1.05974115381936E-15
(PID.TID 0000.0001) // =======================================================
(PID.TID 0000.0001) // Begin MONITOR dynamic field statistics
(PID.TID 0000.0001) // =======================================================
(PID.TID 0000.0001) %MON time_tsnumber                =                    51
(PID.TID 0000.0001) %MON time_secondsf                =   1.8360000000000E+05
(PID.TID 0000.0001) %MON dynstat_eta_max              =   5.7398250772501E-03
(PID.TID 0000.0001) %MON dynstat_eta_min              =  -5.7754316654657E-03
(PID.TID 0000.0001) %MON dynstat_eta_mean             =   1.0717497207224E-17
(PID.TID 0000.0001) %MON dynstat_eta_sd               =   3.5116057943654E-03
(PID.TID 0000.0001) %MON dynstat_eta_del2             =   1.0498229392233E-03
(PID.TID 0000.0001) %MON dynstat_uvel_max             =   1.1074755078693E-02
(PID.TID 0000.0001) %MON dynstat_uvel_min             =  -1.4026157864021E-04
(PID.TID 0000.0001) %MON dynstat_uvel_mean            =   1.3399283713973E-03
(PID.TID 0000.0001) %MON dynstat_uvel_sd              =   1.4556734992056E-03
(PID.TID 0000.0001) %MON dynstat_uvel_del2            =   8.3535167363387E-04
(PID.TID 0000.0001) %MON dynstat_vvel_max             =   2.0344074638082E-02
(PID.TID 0000.0001) %MON dynstat_vvel_min             =  -2.2847621022070E-03
(PID.TID 0000.0001) %MON dynstat_vvel_mean            =  -2.1349317394296E-06
(PID.TID 0000.0001) %MON dynstat_vvel_sd              =   2.7026650096984E-03
(PID.TID 0000.0001) %MON dynstat_vvel_del2            =   1.7881539913395E-03
(PID.TID 0000.0001) %MON dynstat_wvel_max             =   1.2864187680995E-05
(PID.TID 0000.0001) %MON dynstat_wvel_min             =  -1.3157160571899E-05
(PID.TID 0000.0001) %MON dynstat_wvel_mean            =  -3.3282308972308E-23
(PID.TID 0000.0001) %MON dynstat_wvel_sd              =   8.0174189338096E-06
(PID.TID 0000.0001) %MON dynstat_wvel_del2            =   4.6180343707085E-06
(PID.TID 0000.0001) %MON dynstat_theta_max            =   4.0000000000000E+00
(PID.TID 0000.0001) %MON dynstat_theta_min            =   4.0000000000000E+00
(PID.TID 0000.0001) %MON dynstat_theta_mean           =   4.0000000000000E+00
(PID.TID 0000.0001) %MON dynstat_theta_sd             =   0.0000000000000E+00
(PID.TID 0000.0001) %MON dynstat_theta_del2           =   0.0000000000000E+00
(PID.TID 0000.0001) %MON dynstat_salt_max             =   3.5000000000000E+01
(PID.TID 0000.0001) %MON dynstat_salt_min             =   3.5000000000000E+01
(PID.TID 0000.0001) %MON dynstat_salt_mean            =   3.5000000000000E+01
(PID.TID 0000.0001) %MON dynstat_salt_sd              =   0.0000000000000E+00
(PID.TID 0000.0001) %MON dynstat_salt_del2            =   0.0000000000000E+00
(PID.TID 0000.0001) %MON advcfl_uvel_max              =   1.9934559141647E-04
(PID.TID 0000.0001) %MON advcfl_vvel_max              =   3.6619334348548E-04
(PID.TID 0000.0001) %MON advcfl_wvel_max              =   4.1972674803851E-04
(PID.TID 0000.0001) %MON advcfl_W_hf_max              =   9.0429888032741E-04
(PID.TID 0000.0001) %MON pe_b_mean                    =   1.3743820223004E-08
(PID.TID 0000.0001) %MON ke_max                       =   1.5555184593307E-04
(PID.TID 0000.0001) %MON ke_mean                      =   4.6963477056006E-06
(PID.TID 0000.0001) %MON ke_vol                       =   3.5207326431489E+15
(PID.TID 0000.0001) %MON vort_r_min                   =  -6.5294896043009E-08
(PID.TID 0000.0001) %MON vort_r_max                   =   5.5373775393464E-08
(PID.TID 0000.0001) %MON vort_a_mean                  =  -1.1390240000000E-04
(PID.TID 0000.0001) %MON vort_a_sd                    =   3.6995004393388E-06
(PID.TID 0000.0001) %MON vort_p_mean                  =  -2.2184161870152E-04
(PID.TID 0000.0001) %MON vort_p_sd                    =   1.8699504330148E-04
(PID.TID 0000.0001) %MON surfExpan_theta_mean         =  -4.8430592869408E-22
(PID.TID 0000.0001) %MON surfExpan_salt_mean          =  -3.1851987714049E-21
(PID.TID 0000.0001) // =======================================================
(PID.TID 0000.0001) // End MONITOR dynamic field statistics
(PID.TID 0000.0001) // =======================================================
 cg2d: Sum(rhs),rhsMax =  -2.16493489801906E-15  7.79746106013342E-02
(PID.TID 0000.0001)                    cg2d_init_res =    4.27686811958814E-02
(PID.TID 0000.0001)                       cg2d_iters =    17
(PID.TID 0000.0001)                         cg2d_res =    6.52920938320742E-16
(PID.TID 0000.0001) // =======================================================
(PID.TID 0000.0001) // Begin MONITOR dynamic field statistics
(PID.TID 0000.0001) // =======================================================
(PID.TID 0000.0001) %MON time_tsnumber                =                    52
(PID.TID 0000.0001) %MON time_secondsf                =   1.8720000000000E+05
(PID.TID 0000.0001) %MON dynstat_eta_max              =   5.6178634287569E-03
(PID.TID 0000.0001) %MON dynstat_eta_min              =  -5.6476475606286E-03
(PID.TID 0000.0001) %MON dynstat_eta_mean             =   1.3612082693726E-17
(PID.TID 0000.0001) %MON dynstat_eta_sd               =   3.4468794146127E-03
(PID.TID 0000.0001) %MON dynstat_eta_del2             =   1.0489586523682E-03
(PID.TID 0000.0001) %MON dynstat_uvel_max             =   1.1032091531413E-02
(PID.TID 0000.0001) %MON dynstat_uvel_min             =  -1.7029464230434E-04
(PID.TID 0000.0001) %MON dynstat_uvel_mean            =   1.3066355372341E-03
(PID.TID 0000.0001) %MON dynstat_uvel_sd              =   1.4729388518367E-03
(PID.TID 0000.0001) %MON dynstat_uvel_del2            =   8.5594886005259E-04
(PID.TID 0000.0001) %MON dynstat_vvel_max             =   2.1267753547336E-02
(PID.TID 0000.0001) %MON dynstat_vvel_min             =  -2.3558815048854E-03
(PID.TID 0000.0001) %MON dynstat_vvel_mean            =  -2.1730288112267E-06
(PID.TID 0000.0001) %MON dynstat_vvel_sd              =   2.8131494612279E-03
(PID.TID 0000.0001) %MON dynstat_vvel_del2            =   1.8010605589614E-03
(PID.TID 0000.0001) %MON dynstat_wvel_max             =   1.3577569251225E-05
(PID.TID 0000.0001) %MON dynstat_wvel_min             =  -1.3805756864390E-05
(PID.TID 0000.0001) %MON dynstat_wvel_mean            =  -1.7503875174693E-23
(PID.TID 0000.0001) %MON dynstat_wvel_sd              =   8.4918253459842E-06
(PID.TID 0000.0001) %MON dynstat_wvel_del2            =   4.7849281423310E-06
(PID.TID 0000.0001) %MON dynstat_theta_max            =   4.0000000000000E+00
(PID.TID 0000.0001) %MON dynstat_theta_min            =   4.0000000000000E+00
(PID.TID 0000.0001) %MON dynstat_theta_mean           =   4.0000000000000E+00
(PID.TID 0000.0001) %MON dynstat_theta_sd             =   0.0000000000000E+00
(PID.TID 0000.0001) %MON dynstat_theta_del2           =   0.0000000000000E+00
(PID.TID 0000.0001) %MON dynstat_salt_max             =   3.5000000000000E+01
(PID.TID 0000.0001) %MON dynstat_salt_min             =   3.5000000000000E+01
(PID.TID 0000.0001) %MON dynstat_salt_mean            =   3.5000000000000E+01
(PID.TID 0000.0001) %MON dynstat_salt_sd              =   0.0000000000000E+00
(PID.TID 0000.0001) %MON dynstat_salt_del2            =   0.0000000000000E+00
(PID.TID 0000.0001) %MON advcfl_uvel_max              =   1.9857764756543E-04
(PID.TID 0000.0001) %MON advcfl_vvel_max              =   3.8281956385205E-04
(PID.TID 0000.0001) %MON advcfl_wvel_max              =   4.2571791610275E-04
(PID.TID 0000.0001) %MON advcfl_W_hf_max              =   9.1433887069419E-04
(PID.TID 0000.0001) %MON pe_b_mean                    =   1.3241833793068E-08
(PID.TID 0000.0001) %MON ke_max                       =   1.6457920502032E-04
(PID.TID 0000.0001) %MON ke_mean                      =   4.9061031241795E-06
(PID.TID 0000.0001) %MON ke_vol                       =   3.5207326431489E+15
(PID.TID 0000.0001) %MON vort_r_min                   =  -6.6561902711388E-08
(PID.TID 0000.0001) %MON vort_r_max                   =   5.5160457657064E-08
(PID.TID 0000.0001) %MON vort_a_mean                  =  -1.1390240000000E-04
(PID.TID 0000.0001) %MON vort_a_sd                    =   3.6994256022092E-06
(PID.TID 0000.0001) %MON vort_p_mean                  =  -2.2184161870152E-04
(PID.TID 0000.0001) %MON vort_p_sd                    =   1.8699501179617E-04
(PID.TID 0000.0001) %MON surfExpan_theta_mean         =  -4.2632564145606E-22
(PID.TID 0000.0001) %MON surfExpan_salt_mean          =  -2.6467006364328E-21
(PID.TID 0000.0001) // =======================================================
(PID.TID 0000.0001) // End MONITOR dynamic field statistics
(PID.TID 0000.0001) // =======================================================
 cg2d: Sum(rhs),rhsMax =  -1.66533453693773E-15  7.94332555833646E-02
(PID.TID 0000.0001)                    cg2d_init_res =    4.11524022467959E-02
(PID.TID 0000.0001)                       cg2d_iters =    17
(PID.TID 0000.0001)                         cg2d_res =    1.07532496571537E-15
(PID.TID 0000.0001) // =======================================================
(PID.TID 0000.0001) // Begin MONITOR dynamic field statistics
(PID.TID 0000.0001) // =======================================================
(PID.TID 0000.0001) %MON time_tsnumber                =                    53
(PID.TID 0000.0001) %MON time_secondsf                =   1.9080000000000E+05
(PID.TID 0000.0001) %MON dynstat_eta_max              =   5.4934469104519E-03
(PID.TID 0000.0001) %MON dynstat_eta_min              =  -5.5176825301676E-03
(PID.TID 0000.0001) %MON dynstat_eta_mean             =   1.1034402996302E-17
(PID.TID 0000.0001) %MON dynstat_eta_sd               =   3.3818790881814E-03
(PID.TID 0000.0001) %MON dynstat_eta_del2             =   1.0472988841315E-03
(PID.TID 0000.0001) %MON dynstat_uvel_max             =   1.0813610906591E-02
(PID.TID 0000.0001) %MON dynstat_uvel_min             =  -1.9160142443204E-04
(PID.TID 0000.0001) %MON dynstat_uvel_mean            =   1.2727250487409E-03
(PID.TID 0000.0001) %MON dynstat_uvel_sd              =   1.4773673126513E-03
(PID.TID 0000.0001) %MON dynstat_uvel_del2            =   8.8669654498117E-04
(PID.TID 0000.0001) %MON dynstat_vvel_max             =   2.2053487341630E-02
(PID.TID 0000.0001) %MON dynstat_vvel_min             =  -2.4196474440264E-03
(PID.TID 0000.0001) %MON dynstat_vvel_mean            =  -2.2059270341459E-06
(PID.TID 0000.0001) %MON dynstat_vvel_sd              =   2.9117660524929E-03
(PID.TID 0000.0001) %MON dynstat_vvel_del2            =   1.8163546727133E-03
(PID.TID 0000.0001) %MON dynstat_wvel_max             =   1.4174909744219E-05
(PID.TID 0000.0001) %MON dynstat_wvel_min             =  -1.4344920199844E-05
(PID.TID 0000.0001) %MON dynstat_wvel_mean            =   5.6128815880844E-23
(PID.TID 0000.0001) %MON dynstat_wvel_sd              =   8.9254642012344E-06
(PID.TID 0000.0001) %MON dynstat_wvel_del2            =   4.9431181139894E-06
(PID.TID 0000.0001) %MON dynstat_theta_max            =   4.0000000000000E+00
(PID.TID 0000.0001) %MON dynstat_theta_min            =   4.0000000000000E+00
(PID.TID 0000.0001) %MON dynstat_theta_mean           =   4.0000000000000E+00
(PID.TID 0000.0001) %MON dynstat_theta_sd             =   0.0000000000000E+00
(PID.TID 0000.0001) %MON dynstat_theta_del2           =   0.0000000000000E+00
(PID.TID 0000.0001) %MON dynstat_salt_max             =   3.5000000000000E+01
(PID.TID 0000.0001) %MON dynstat_salt_min             =   3.5000000000000E+01
(PID.TID 0000.0001) %MON dynstat_salt_mean            =   3.5000000000000E+01
(PID.TID 0000.0001) %MON dynstat_salt_sd              =   0.0000000000000E+00
(PID.TID 0000.0001) %MON dynstat_salt_del2            =   0.0000000000000E+00
(PID.TID 0000.0001) %MON advcfl_uvel_max              =   1.9464499631864E-04
(PID.TID 0000.0001) %MON advcfl_vvel_max              =   3.9696277214933E-04
(PID.TID 0000.0001) %MON advcfl_wvel_max              =   4.3164592549797E-04
(PID.TID 0000.0001) %MON advcfl_W_hf_max              =   9.2459068902115E-04
(PID.TID 0000.0001) %MON pe_b_mean                    =   1.2747120883191E-08
(PID.TID 0000.0001) %MON ke_max                       =   1.7078603542322E-04
(PID.TID 0000.0001) %MON ke_mean                      =   5.0806165170530E-06
(PID.TID 0000.0001) %MON ke_vol                       =   3.5207326431489E+15
(PID.TID 0000.0001) %MON vort_r_min                   =  -6.8627806010072E-08
(PID.TID 0000.0001) %MON vort_r_max                   =   5.4068054532954E-08
(PID.TID 0000.0001) %MON vort_a_mean                  =  -1.1390240000000E-04
(PID.TID 0000.0001) %MON vort_a_sd                    =   3.6993555315078E-06
(PID.TID 0000.0001) %MON vort_p_mean                  =  -2.2184161870152E-04
(PID.TID 0000.0001) %MON vort_p_sd                    =   1.8699498723615E-04
(PID.TID 0000.0001) %MON surfExpan_theta_mean         =  -3.9563019527122E-22
(PID.TID 0000.0001) %MON surfExpan_salt_mean          =  -1.3961320988187E-21
(PID.TID 0000.0001) // =======================================================
(PID.TID 0000.0001) // End MONITOR dynamic field statistics
(PID.TID 0000.0001) // =======================================================
 cg2d: Sum(rhs),rhsMax =  -1.63757896132211E-15  8.07704834293989E-02
(PID.TID 0000.0001)                    cg2d_init_res =    3.97463614452713E-02
(PID.TID 0000.0001)                       cg2d_iters =    17
(PID.TID 0000.0001)                         cg2d_res =    5.38296462482201E-16
(PID.TID 0000.0001) // =======================================================
(PID.TID 0000.0001) // Begin MONITOR dynamic field statistics
(PID.TID 0000.0001) // =======================================================
(PID.TID 0000.0001) %MON time_tsnumber                =                    54
(PID.TID 0000.0001) %MON time_secondsf                =   1.9440000000000E+05
(PID.TID 0000.0001) %MON dynstat_eta_max              =   5.3661794596118E-03
(PID.TID 0000.0001) %MON dynstat_eta_min              =  -5.3850782313176E-03
(PID.TID 0000.0001) %MON dynstat_eta_mean             =   1.0820361785591E-17
(PID.TID 0000.0001) %MON dynstat_eta_sd               =   3.3165954802853E-03
(PID.TID 0000.0001) %MON dynstat_eta_del2             =   1.0447264887577E-03
(PID.TID 0000.0001) %MON dynstat_uvel_max             =   1.0458007497398E-02
(PID.TID 0000.0001) %MON dynstat_uvel_min             =  -8.1046471761101E-04
(PID.TID 0000.0001) %MON dynstat_uvel_mean            =   1.2382420857672E-03
(PID.TID 0000.0001) %MON dynstat_uvel_sd              =   1.4780970997512E-03
(PID.TID 0000.0001) %MON dynstat_uvel_del2            =   9.2506692494005E-04
(PID.TID 0000.0001) %MON dynstat_vvel_max             =   2.2614082003196E-02
(PID.TID 0000.0001) %MON dynstat_vvel_min             =  -2.4716371435054E-03
(PID.TID 0000.0001) %MON dynstat_vvel_mean            =  -2.2333178967700E-06
(PID.TID 0000.0001) %MON dynstat_vvel_sd              =   2.9846560372187E-03
(PID.TID 0000.0001) %MON dynstat_vvel_del2            =   1.8365890285374E-03
(PID.TID 0000.0001) %MON dynstat_wvel_max             =   1.4584231804841E-05
(PID.TID 0000.0001) %MON dynstat_wvel_min             =  -1.4714204911805E-05
(PID.TID 0000.0001) %MON dynstat_wvel_mean            =  -8.9390336402825E-24
(PID.TID 0000.0001) %MON dynstat_wvel_sd              =   9.2715147181002E-06
(PID.TID 0000.0001) %MON dynstat_wvel_del2            =   5.0871598294165E-06
(PID.TID 0000.0001) %MON dynstat_theta_max            =   4.0000000000000E+00
(PID.TID 0000.0001) %MON dynstat_theta_min            =   4.0000000000000E+00
(PID.TID 0000.0001) %MON dynstat_theta_mean           =   4.0000000000000E+00
(PID.TID 0000.0001) %MON dynstat_theta_sd             =   0.0000000000000E+00
(PID.TID 0000.0001) %MON dynstat_theta_del2           =   0.0000000000000E+00
(PID.TID 0000.0001) %MON dynstat_salt_max             =   3.5000000000000E+01
(PID.TID 0000.0001) %MON dynstat_salt_min             =   3.5000000000000E+01
(PID.TID 0000.0001) %MON dynstat_salt_mean            =   3.5000000000000E+01
(PID.TID 0000.0001) %MON dynstat_salt_sd              =   0.0000000000000E+00
(PID.TID 0000.0001) %MON dynstat_salt_del2            =   0.0000000000000E+00
(PID.TID 0000.0001) %MON advcfl_uvel_max              =   1.8824413495316E-04
(PID.TID 0000.0001) %MON advcfl_vvel_max              =   4.0705347605753E-04
(PID.TID 0000.0001) %MON advcfl_wvel_max              =   4.3731334992888E-04
(PID.TID 0000.0001) %MON advcfl_W_hf_max              =   9.3578158926996E-04
(PID.TID 0000.0001) %MON pe_b_mean                    =   1.2259731558805E-08
(PID.TID 0000.0001) %MON ke_max                       =   1.7351814505543E-04
(PID.TID 0000.0001) %MON ke_mean                      =   5.1995734927095E-06
(PID.TID 0000.0001) %MON ke_vol                       =   3.5207326431489E+15
(PID.TID 0000.0001) %MON vort_r_min                   =  -7.1208176371142E-08
(PID.TID 0000.0001) %MON vort_r_max                   =   5.2290037486988E-08
(PID.TID 0000.0001) %MON vort_a_mean                  =  -1.1390240000000E-04
(PID.TID 0000.0001) %MON vort_a_sd                    =   3.6992892701351E-06
(PID.TID 0000.0001) %MON vort_p_mean                  =  -2.2184161870152E-04
(PID.TID 0000.0001) %MON vort_p_sd                    =   1.8699496855382E-04
(PID.TID 0000.0001) %MON surfExpan_theta_mean         =   4.2064129956998E-23
(PID.TID 0000.0001) %MON surfExpan_salt_mean          =   1.4072654153097E-21
(PID.TID 0000.0001) // =======================================================
(PID.TID 0000.0001) // End MONITOR dynamic field statistics
(PID.TID 0000.0001) // =======================================================
 cg2d: Sum(rhs),rhsMax =  -1.52655665885959E-15  8.19723990199665E-02
(PID.TID 0000.0001)                    cg2d_init_res =    3.86469149705771E-02
(PID.TID 0000.0001)                       cg2d_iters =    16
(PID.TID 0000.0001)                         cg2d_res =    4.02890546353705E-14
(PID.TID 0000.0001) // =======================================================
(PID.TID 0000.0001) // Begin MONITOR dynamic field statistics
(PID.TID 0000.0001) // =======================================================
(PID.TID 0000.0001) %MON time_tsnumber                =                    55
(PID.TID 0000.0001) %MON time_secondsf                =   1.9800000000000E+05
(PID.TID 0000.0001) %MON dynstat_eta_max              =   5.2354856437153E-03
(PID.TID 0000.0001) %MON dynstat_eta_min              =  -5.2491618080797E-03
(PID.TID 0000.0001) %MON dynstat_eta_mean             =   7.5717456638813E-18
(PID.TID 0000.0001) %MON dynstat_eta_sd               =   3.2510284115517E-03
(PID.TID 0000.0001) %MON dynstat_eta_del2             =   1.0411231602155E-03
(PID.TID 0000.0001) %MON dynstat_uvel_max             =   1.0018667843058E-02
(PID.TID 0000.0001) %MON dynstat_uvel_min             =  -1.7697417445156E-03
(PID.TID 0000.0001) %MON dynstat_uvel_mean            =   1.2032216746829E-03
(PID.TID 0000.0001) %MON dynstat_uvel_sd              =   1.4840326113919E-03
(PID.TID 0000.0001) %MON dynstat_uvel_del2            =   9.6727898961372E-04
(PID.TID 0000.0001) %MON dynstat_vvel_max             =   2.2898437888475E-02
(PID.TID 0000.0001) %MON dynstat_vvel_min             =  -2.5090053473709E-03
(PID.TID 0000.0001) %MON dynstat_vvel_mean            =  -2.2546308324041E-06
(PID.TID 0000.0001) %MON dynstat_vvel_sd              =   3.0227867026866E-03
(PID.TID 0000.0001) %MON dynstat_vvel_del2            =   1.8629983693508E-03
(PID.TID 0000.0001) %MON dynstat_wvel_max             =   1.4763175057976E-05
(PID.TID 0000.0001) %MON dynstat_wvel_min             =  -1.4878475357643E-05
(PID.TID 0000.0001) %MON dynstat_wvel_mean            =  -1.3150773676378E-22
(PID.TID 0000.0001) %MON dynstat_wvel_sd              =   9.4986552300432E-06
(PID.TID 0000.0001) %MON dynstat_wvel_del2            =   5.2114710556057E-06
(PID.TID 0000.0001) %MON dynstat_theta_max            =   4.0000000000000E+00
(PID.TID 0000.0001) %MON dynstat_theta_min            =   4.0000000000000E+00
(PID.TID 0000.0001) %MON dynstat_theta_mean           =   4.0000000000000E+00
(PID.TID 0000.0001) %MON dynstat_theta_sd             =   0.0000000000000E+00
(PID.TID 0000.0001) %MON dynstat_theta_del2           =   0.0000000000000E+00
(PID.TID 0000.0001) %MON dynstat_salt_max             =   3.5000000000000E+01
(PID.TID 0000.0001) %MON dynstat_salt_min             =   3.5000000000000E+01
(PID.TID 0000.0001) %MON dynstat_salt_mean            =   3.5000000000000E+01
(PID.TID 0000.0001) %MON dynstat_salt_sd              =   0.0000000000000E+00
(PID.TID 0000.0001) %MON dynstat_salt_del2            =   0.0000000000000E+00
(PID.TID 0000.0001) %MON advcfl_uvel_max              =   1.8033602117504E-04
(PID.TID 0000.0001) %MON advcfl_vvel_max              =   4.1217188199255E-04
(PID.TID 0000.0001) %MON advcfl_wvel_max              =   4.4249526333649E-04
(PID.TID 0000.0001) %MON advcfl_W_hf_max              =   9.4828237288796E-04
(PID.TID 0000.0001) %MON pe_b_mean                    =   1.1779788191496E-08
(PID.TID 0000.0001) %MON ke_max                       =   1.7263317398349E-04
(PID.TID 0000.0001) %MON ke_mean                      =   5.2515142950378E-06
(PID.TID 0000.0001) %MON ke_vol                       =   3.5207326431489E+15
(PID.TID 0000.0001) %MON vort_r_min                   =  -7.3924061899079E-08
(PID.TID 0000.0001) %MON vort_r_max                   =   5.3243307170586E-08
(PID.TID 0000.0001) %MON vort_a_mean                  =  -1.1390240000000E-04
(PID.TID 0000.0001) %MON vort_a_sd                    =   3.6992254382735E-06
(PID.TID 0000.0001) %MON vort_p_mean                  =  -2.2184161870152E-04
(PID.TID 0000.0001) %MON vort_p_sd                    =   1.8699495394604E-04
(PID.TID 0000.0001) %MON surfExpan_theta_mean         =  -8.4696694102604E-22
(PID.TID 0000.0001) %MON surfExpan_salt_mean          =  -5.9874949442928E-21
(PID.TID 0000.0001) // =======================================================
(PID.TID 0000.0001) // End MONITOR dynamic field statistics
(PID.TID 0000.0001) // =======================================================
 cg2d: Sum(rhs),rhsMax =  -1.02695629777827E-15  8.30360026830601E-02
(PID.TID 0000.0001)                    cg2d_init_res =    3.79138801758321E-02
(PID.TID 0000.0001)                       cg2d_iters =    16
(PID.TID 0000.0001)                         cg2d_res =    4.62749079539560E-14
(PID.TID 0000.0001) // =======================================================
(PID.TID 0000.0001) // Begin MONITOR dynamic field statistics
(PID.TID 0000.0001) // =======================================================
(PID.TID 0000.0001) %MON time_tsnumber                =                    56
(PID.TID 0000.0001) %MON time_secondsf                =   2.0160000000000E+05
(PID.TID 0000.0001) %MON dynstat_eta_max              =   5.1007832808794E-03
(PID.TID 0000.0001) %MON dynstat_eta_min              =  -5.1092379585428E-03
(PID.TID 0000.0001) %MON dynstat_eta_mean             =   4.5157270506024E-18
(PID.TID 0000.0001) %MON dynstat_eta_sd               =   3.1852379244239E-03
(PID.TID 0000.0001) %MON dynstat_eta_del2             =   1.0363935353691E-03
(PID.TID 0000.0001) %MON dynstat_uvel_max             =   9.5553764519805E-03
(PID.TID 0000.0001) %MON dynstat_uvel_min             =  -2.6961608336162E-03
(PID.TID 0000.0001) %MON dynstat_uvel_mean            =   1.1677034149455E-03
(PID.TID 0000.0001) %MON dynstat_uvel_sd              =   1.4989986146335E-03
(PID.TID 0000.0001) %MON dynstat_uvel_del2            =   1.0065854280594E-03
(PID.TID 0000.0001) %MON dynstat_vvel_max             =   2.2897198347638E-02
(PID.TID 0000.0001) %MON dynstat_vvel_min             =  -2.5308655978281E-03
(PID.TID 0000.0001) %MON dynstat_vvel_mean            =  -2.2691400444122E-06
(PID.TID 0000.0001) %MON dynstat_vvel_sd              =   3.0242562436016E-03
(PID.TID 0000.0001) %MON dynstat_vvel_del2            =   1.8953133077570E-03
(PID.TID 0000.0001) %MON dynstat_wvel_max             =   1.4704506419969E-05
(PID.TID 0000.0001) %MON dynstat_wvel_min             =  -1.4832519311267E-05
(PID.TID 0000.0001) %MON dynstat_wvel_mean            =   4.0246439831597E-23
(PID.TID 0000.0001) %MON dynstat_wvel_sd              =   9.5991839941817E-06
(PID.TID 0000.0001) %MON dynstat_wvel_del2            =   5.3126616550970E-06
(PID.TID 0000.0001) %MON dynstat_theta_max            =   4.0000000000000E+00
(PID.TID 0000.0001) %MON dynstat_theta_min            =   4.0000000000000E+00
(PID.TID 0000.0001) %MON dynstat_theta_mean           =   4.0000000000000E+00
(PID.TID 0000.0001) %MON dynstat_theta_sd             =   0.0000000000000E+00
(PID.TID 0000.0001) %MON dynstat_theta_del2           =   0.0000000000000E+00
(PID.TID 0000.0001) %MON dynstat_salt_max             =   3.5000000000000E+01
(PID.TID 0000.0001) %MON dynstat_salt_min             =   3.5000000000000E+01
(PID.TID 0000.0001) %MON dynstat_salt_mean            =   3.5000000000000E+01
(PID.TID 0000.0001) %MON dynstat_salt_sd              =   0.0000000000000E+00
(PID.TID 0000.0001) %MON dynstat_salt_del2            =   0.0000000000000E+00
(PID.TID 0000.0001) %MON advcfl_uvel_max              =   1.7199677613565E-04
(PID.TID 0000.0001) %MON advcfl_vvel_max              =   4.1214957025748E-04
(PID.TID 0000.0001) %MON advcfl_wvel_max              =   4.4697543533053E-04
(PID.TID 0000.0001) %MON advcfl_W_hf_max              =   9.6203763440696E-04
(PID.TID 0000.0001) %MON pe_b_mean                    =   1.1307841374990E-08
(PID.TID 0000.0001) %MON ke_max                       =   1.6852403835677E-04
(PID.TID 0000.0001) %MON ke_mean                      =   5.2350631719592E-06
(PID.TID 0000.0001) %MON ke_vol                       =   3.5207326431489E+15
(PID.TID 0000.0001) %MON vort_r_min                   =  -7.6368543110836E-08
(PID.TID 0000.0001) %MON vort_r_max                   =   5.5357077608465E-08
(PID.TID 0000.0001) %MON vort_a_mean                  =  -1.1390240000000E-04
(PID.TID 0000.0001) %MON vort_a_sd                    =   3.6991624951656E-06
(PID.TID 0000.0001) %MON vort_p_mean                  =  -2.2184161870152E-04
(PID.TID 0000.0001) %MON vort_p_sd                    =   1.8699494124800E-04
(PID.TID 0000.0001) %MON surfExpan_theta_mean         =   2.4101609596983E-22
(PID.TID 0000.0001) %MON surfExpan_salt_mean          =   2.9546276536507E-21
(PID.TID 0000.0001) // =======================================================
(PID.TID 0000.0001) // End MONITOR dynamic field statistics
(PID.TID 0000.0001) // =======================================================
 cg2d: Sum(rhs),rhsMax =  -6.80011602582908E-16  8.39690756684005E-02
(PID.TID 0000.0001)                    cg2d_init_res =    3.75465888556190E-02
(PID.TID 0000.0001)                       cg2d_iters =    17
(PID.TID 0000.0001)                         cg2d_res =    4.12711203251240E-15
(PID.TID 0000.0001) // =======================================================
(PID.TID 0000.0001) // Begin MONITOR dynamic field statistics
(PID.TID 0000.0001) // =======================================================
(PID.TID 0000.0001) %MON time_tsnumber                =                    57
(PID.TID 0000.0001) %MON time_secondsf                =   2.0520000000000E+05
(PID.TID 0000.0001) %MON dynstat_eta_max              =   4.9616519375289E-03
(PID.TID 0000.0001) %MON dynstat_eta_min              =  -4.9647791829744E-03
(PID.TID 0000.0001) %MON dynstat_eta_mean             =   4.6471948735416E-18
(PID.TID 0000.0001) %MON dynstat_eta_sd               =   3.1193854885762E-03
(PID.TID 0000.0001) %MON dynstat_eta_del2             =   1.0304854554144E-03
(PID.TID 0000.0001) %MON dynstat_uvel_max             =   9.1255017211135E-03
(PID.TID 0000.0001) %MON dynstat_uvel_min             =  -3.4593806017619E-03
(PID.TID 0000.0001) %MON dynstat_uvel_mean            =   1.1317448594359E-03
(PID.TID 0000.0001) %MON dynstat_uvel_sd              =   1.5202564016631E-03
(PID.TID 0000.0001) %MON dynstat_uvel_del2            =   1.0366456083602E-03
(PID.TID 0000.0001) %MON dynstat_vvel_max             =   2.2641831921765E-02
(PID.TID 0000.0001) %MON dynstat_vvel_min             =  -2.5383620982775E-03
(PID.TID 0000.0001) %MON dynstat_vvel_mean            =  -2.2760970569559E-06
(PID.TID 0000.0001) %MON dynstat_vvel_sd              =   2.9944504619241E-03
(PID.TID 0000.0001) %MON dynstat_vvel_del2            =   1.9318298277194E-03
(PID.TID 0000.0001) %MON dynstat_wvel_max             =   1.4435999138523E-05
(PID.TID 0000.0001) %MON dynstat_wvel_min             =  -1.4600957435412E-05
(PID.TID 0000.0001) %MON dynstat_wvel_mean            =   3.7336056785924E-23
(PID.TID 0000.0001) %MON dynstat_wvel_sd              =   9.5897380105546E-06
(PID.TID 0000.0001) %MON dynstat_wvel_del2            =   5.3891303339504E-06
(PID.TID 0000.0001) %MON dynstat_theta_max            =   4.0000000000000E+00
(PID.TID 0000.0001) %MON dynstat_theta_min            =   4.0000000000000E+00
(PID.TID 0000.0001) %MON dynstat_theta_mean           =   4.0000000000000E+00
(PID.TID 0000.0001) %MON dynstat_theta_sd             =   0.0000000000000E+00
(PID.TID 0000.0001) %MON dynstat_theta_del2           =   0.0000000000000E+00
(PID.TID 0000.0001) %MON dynstat_salt_max             =   3.5000000000000E+01
(PID.TID 0000.0001) %MON dynstat_salt_min             =   3.5000000000000E+01
(PID.TID 0000.0001) %MON dynstat_salt_mean            =   3.5000000000000E+01
(PID.TID 0000.0001) %MON dynstat_salt_sd              =   0.0000000000000E+00
(PID.TID 0000.0001) %MON dynstat_salt_del2            =   0.0000000000000E+00
(PID.TID 0000.0001) %MON advcfl_uvel_max              =   1.6425903098004E-04
(PID.TID 0000.0001) %MON advcfl_vvel_max              =   4.0755297459177E-04
(PID.TID 0000.0001) %MON advcfl_wvel_max              =   4.5058039125005E-04
(PID.TID 0000.0001) %MON advcfl_W_hf_max              =   9.7656849134591E-04
(PID.TID 0000.0001) %MON pe_b_mean                    =   1.0845112132231E-08
(PID.TID 0000.0001) %MON ke_max                       =   1.6203770949026E-04
(PID.TID 0000.0001) %MON ke_mean                      =   5.1585400079042E-06
(PID.TID 0000.0001) %MON ke_vol                       =   3.5207326431489E+15
(PID.TID 0000.0001) %MON vort_r_min                   =  -7.8174298048741E-08
(PID.TID 0000.0001) %MON vort_r_max                   =   5.6834292043089E-08
(PID.TID 0000.0001) %MON vort_a_mean                  =  -1.1390240000000E-04
(PID.TID 0000.0001) %MON vort_a_sd                    =   3.6990990253858E-06
(PID.TID 0000.0001) %MON vort_p_mean                  =  -2.2184161870152E-04
(PID.TID 0000.0001) %MON vort_p_sd                    =   1.8699492834512E-04
(PID.TID 0000.0001) %MON surfExpan_theta_mean         =   2.8762769943569E-22
(PID.TID 0000.0001) %MON surfExpan_salt_mean          =   2.6428237376308E-21
(PID.TID 0000.0001) // =======================================================
(PID.TID 0000.0001) // End MONITOR dynamic field statistics
(PID.TID 0000.0001) // =======================================================
 cg2d: Sum(rhs),rhsMax =  -5.13478148889135E-16  8.47884155050402E-02
(PID.TID 0000.0001)                    cg2d_init_res =    3.74714576473386E-02
(PID.TID 0000.0001)                       cg2d_iters =    17
(PID.TID 0000.0001)                         cg2d_res =    5.75712542797654E-15
(PID.TID 0000.0001) // =======================================================
(PID.TID 0000.0001) // Begin MONITOR dynamic field statistics
(PID.TID 0000.0001) // =======================================================
(PID.TID 0000.0001) %MON time_tsnumber                =                    58
(PID.TID 0000.0001) %MON time_secondsf                =   2.0880000000000E+05
(PID.TID 0000.0001) %MON dynstat_eta_max              =   4.8179705279607E-03
(PID.TID 0000.0001) %MON dynstat_eta_min              =  -4.8155847790563E-03
(PID.TID 0000.0001) %MON dynstat_eta_mean             =   3.4600729122758E-18
(PID.TID 0000.0001) %MON dynstat_eta_sd               =   3.0537592592609E-03
(PID.TID 0000.0001) %MON dynstat_eta_del2             =   1.0234033177214E-03
(PID.TID 0000.0001) %MON dynstat_uvel_max             =   8.7760111359451E-03
(PID.TID 0000.0001) %MON dynstat_uvel_min             =  -3.9596522082433E-03
(PID.TID 0000.0001) %MON dynstat_uvel_mean            =   1.0954314605728E-03
(PID.TID 0000.0001) %MON dynstat_uvel_sd              =   1.5412069604179E-03
(PID.TID 0000.0001) %MON dynstat_uvel_del2            =   1.0534069821884E-03
(PID.TID 0000.0001) %MON dynstat_vvel_max             =   2.2197621610675E-02
(PID.TID 0000.0001) %MON dynstat_vvel_min             =  -2.5344290578941E-03
(PID.TID 0000.0001) %MON dynstat_vvel_mean            =  -2.2748669112718E-06
(PID.TID 0000.0001) %MON dynstat_vvel_sd              =   2.9441375781406E-03
(PID.TID 0000.0001) %MON dynstat_vvel_del2            =   1.9705765200812E-03
(PID.TID 0000.0001) %MON dynstat_wvel_max             =   1.4014878091490E-05
(PID.TID 0000.0001) %MON dynstat_wvel_min             =  -1.4304343068574E-05
(PID.TID 0000.0001) %MON dynstat_wvel_mean            =  -6.9371058738657E-23
(PID.TID 0000.0001) %MON dynstat_wvel_sd              =   9.5047314706449E-06
(PID.TID 0000.0001) %MON dynstat_wvel_del2            =   5.4410596364586E-06
(PID.TID 0000.0001) %MON dynstat_theta_max            =   4.0000000000000E+00
(PID.TID 0000.0001) %MON dynstat_theta_min            =   4.0000000000000E+00
(PID.TID 0000.0001) %MON dynstat_theta_mean           =   4.0000000000000E+00
(PID.TID 0000.0001) %MON dynstat_theta_sd             =   0.0000000000000E+00
(PID.TID 0000.0001) %MON dynstat_theta_del2           =   0.0000000000000E+00
(PID.TID 0000.0001) %MON dynstat_salt_max             =   3.5000000000000E+01
(PID.TID 0000.0001) %MON dynstat_salt_min             =   3.5000000000000E+01
(PID.TID 0000.0001) %MON dynstat_salt_mean            =   3.5000000000000E+01
(PID.TID 0000.0001) %MON dynstat_salt_sd              =   0.0000000000000E+00
(PID.TID 0000.0001) %MON dynstat_salt_del2            =   0.0000000000000E+00
(PID.TID 0000.0001) %MON advcfl_uvel_max              =   1.5796820044701E-04
(PID.TID 0000.0001) %MON advcfl_vvel_max              =   3.9955718899215E-04
(PID.TID 0000.0001) %MON advcfl_wvel_max              =   4.5320603539882E-04
(PID.TID 0000.0001) %MON advcfl_W_hf_max              =   9.9104439585938E-04
(PID.TID 0000.0001) %MON pe_b_mean                    =   1.0393589146471E-08
(PID.TID 0000.0001) %MON ke_max                       =   1.5430721939689E-04
(PID.TID 0000.0001) %MON ke_mean                      =   5.0381262100914E-06
(PID.TID 0000.0001) %MON ke_vol                       =   3.5207326431489E+15
(PID.TID 0000.0001) %MON vort_r_min                   =  -7.9071669001747E-08
(PID.TID 0000.0001) %MON vort_r_max                   =   5.7411495244361E-08
(PID.TID 0000.0001) %MON vort_a_mean                  =  -1.1390240000000E-04
(PID.TID 0000.0001) %MON vort_a_sd                    =   3.6990340037140E-06
(PID.TID 0000.0001) %MON vort_p_mean                  =  -2.2184161870152E-04
(PID.TID 0000.0001) %MON vort_p_sd                    =   1.8699491355340E-04
(PID.TID 0000.0001) %MON surfExpan_theta_mean         =   6.3664629124105E-23
(PID.TID 0000.0001) %MON surfExpan_salt_mean          =   1.2111023295347E-21
(PID.TID 0000.0001) // =======================================================
(PID.TID 0000.0001) // End MONITOR dynamic field statistics
(PID.TID 0000.0001) // =======================================================
 cg2d: Sum(rhs),rhsMax =  -1.94289029309402E-16  8.55167463512555E-02
(PID.TID 0000.0001)                    cg2d_init_res =    3.75524444089659E-02
(PID.TID 0000.0001)                       cg2d_iters =    17
(PID.TID 0000.0001)                         cg2d_res =    6.49991637596945E-15
(PID.TID 0000.0001) // =======================================================
(PID.TID 0000.0001) // Begin MONITOR dynamic field statistics
(PID.TID 0000.0001) // =======================================================
(PID.TID 0000.0001) %MON time_tsnumber                =                    59
(PID.TID 0000.0001) %MON time_secondsf                =   2.1240000000000E+05
(PID.TID 0000.0001) %MON dynstat_eta_max              =   4.6700034514241E-03
(PID.TID 0000.0001) %MON dynstat_eta_min              =  -4.6618843512402E-03
(PID.TID 0000.0001) %MON dynstat_eta_mean             =   1.3023498468101E-18
(PID.TID 0000.0001) %MON dynstat_eta_sd               =   2.9887783292033E-03
(PID.TID 0000.0001) %MON dynstat_eta_del2             =   1.0152125932687E-03
(PID.TID 0000.0001) %MON dynstat_uvel_max             =   8.5374738447899E-03
(PID.TID 0000.0001) %MON dynstat_uvel_min             =  -4.1416332788227E-03
(PID.TID 0000.0001) %MON dynstat_uvel_mean            =   1.0588815896841E-03
(PID.TID 0000.0001) %MON dynstat_uvel_sd              =   1.5560195406874E-03
(PID.TID 0000.0001) %MON dynstat_uvel_del2            =   1.0548154578183E-03
(PID.TID 0000.0001) %MON dynstat_vvel_max             =   2.1651938902776E-02
(PID.TID 0000.0001) %MON dynstat_vvel_min             =  -2.5232830268792E-03
(PID.TID 0000.0001) %MON dynstat_vvel_mean            =  -2.2650454796111E-06
(PID.TID 0000.0001) %MON dynstat_vvel_sd              =   2.8861718493106E-03
(PID.TID 0000.0001) %MON dynstat_vvel_del2            =   2.0080112851556E-03
(PID.TID 0000.0001) %MON dynstat_wvel_max             =   1.4281260719985E-05
(PID.TID 0000.0001) %MON dynstat_wvel_min             =  -1.4728204093430E-05
(PID.TID 0000.0001) %MON dynstat_wvel_mean            =  -6.5920175984502E-23
(PID.TID 0000.0001) %MON dynstat_wvel_sd              =   9.3848163792556E-06
(PID.TID 0000.0001) %MON dynstat_wvel_del2            =   5.4701938062408E-06
(PID.TID 0000.0001) %MON dynstat_theta_max            =   4.0000000000000E+00
(PID.TID 0000.0001) %MON dynstat_theta_min            =   4.0000000000000E+00
(PID.TID 0000.0001) %MON dynstat_theta_mean           =   4.0000000000000E+00
(PID.TID 0000.0001) %MON dynstat_theta_sd             =   0.0000000000000E+00
(PID.TID 0000.0001) %MON dynstat_theta_del2           =   0.0000000000000E+00
(PID.TID 0000.0001) %MON dynstat_salt_max             =   3.5000000000000E+01
(PID.TID 0000.0001) %MON dynstat_salt_min             =   3.5000000000000E+01
(PID.TID 0000.0001) %MON dynstat_salt_mean            =   3.5000000000000E+01
(PID.TID 0000.0001) %MON dynstat_salt_sd              =   0.0000000000000E+00
(PID.TID 0000.0001) %MON dynstat_salt_del2            =   0.0000000000000E+00
(PID.TID 0000.0001) %MON advcfl_uvel_max              =   1.5367452920622E-04
(PID.TID 0000.0001) %MON advcfl_vvel_max              =   3.8973490024997E-04
(PID.TID 0000.0001) %MON advcfl_wvel_max              =   4.5483288087670E-04
(PID.TID 0000.0001) %MON advcfl_W_hf_max              =   1.0044102560829E-03
(PID.TID 0000.0001) %MON pe_b_mean                    =   9.9559650415899E-09
(PID.TID 0000.0001) %MON ke_max                       =   1.4654012382532E-04
(PID.TID 0000.0001) %MON ke_mean                      =   4.8949609188055E-06
(PID.TID 0000.0001) %MON ke_vol                       =   3.5207326431489E+15
(PID.TID 0000.0001) %MON vort_r_min                   =  -7.8928744117459E-08
(PID.TID 0000.0001) %MON vort_r_max                   =   5.6961302896077E-08
(PID.TID 0000.0001) %MON vort_a_mean                  =  -1.1390240000000E-04
(PID.TID 0000.0001) %MON vort_a_sd                    =   3.6989669930642E-06
(PID.TID 0000.0001) %MON vort_p_mean                  =  -2.2184161870152E-04
(PID.TID 0000.0001) %MON vort_p_sd                    =   1.8699489590676E-04
(PID.TID 0000.0001) %MON surfExpan_theta_mean         =   3.9563019527122E-22
(PID.TID 0000.0001) %MON surfExpan_salt_mean          =   2.2299007085280E-21
(PID.TID 0000.0001) // =======================================================
(PID.TID 0000.0001) // End MONITOR dynamic field statistics
(PID.TID 0000.0001) // =======================================================
 cg2d: Sum(rhs),rhsMax =  -1.80411241501588E-16  8.61788332411815E-02
(PID.TID 0000.0001)                    cg2d_init_res =    3.76231409728948E-02
(PID.TID 0000.0001)                       cg2d_iters =    17
(PID.TID 0000.0001)                         cg2d_res =    5.99994678864577E-15
(PID.TID 0000.0001) // =======================================================
(PID.TID 0000.0001) // Begin MONITOR dynamic field statistics
(PID.TID 0000.0001) // =======================================================
(PID.TID 0000.0001) %MON time_tsnumber                =                    60
(PID.TID 0000.0001) %MON time_secondsf                =   2.1600000000000E+05
(PID.TID 0000.0001) %MON dynstat_eta_max              =   4.5184238092528E-03
(PID.TID 0000.0001) %MON dynstat_eta_min              =  -4.5043705396744E-03
(PID.TID 0000.0001) %MON dynstat_eta_mean             =   1.0096933692694E-18
(PID.TID 0000.0001) %MON dynstat_eta_sd               =   2.9249730408047E-03
(PID.TID 0000.0001) %MON dynstat_eta_del2             =   1.0060350009738E-03
(PID.TID 0000.0001) %MON dynstat_uvel_max             =   8.4208497307975E-03
(PID.TID 0000.0001) %MON dynstat_uvel_min             =  -4.0006987539025E-03
(PID.TID 0000.0001) %MON dynstat_uvel_mean            =   1.0222459473376E-03
(PID.TID 0000.0001) %MON dynstat_uvel_sd              =   1.5630889931275E-03
(PID.TID 0000.0001) %MON dynstat_uvel_del2            =   1.0410946030508E-03
(PID.TID 0000.0001) %MON dynstat_vvel_max             =   2.1099830059957E-02
(PID.TID 0000.0001) %MON dynstat_vvel_min             =  -3.2296983763082E-03
(PID.TID 0000.0001) %MON dynstat_vvel_mean            =  -2.2465391820994E-06
(PID.TID 0000.0001) %MON dynstat_vvel_sd              =   2.8319844800628E-03
(PID.TID 0000.0001) %MON dynstat_vvel_del2            =   2.0394741614010E-03
(PID.TID 0000.0001) %MON dynstat_wvel_max             =   1.4714060470575E-05
(PID.TID 0000.0001) %MON dynstat_wvel_min             =  -1.5107379296945E-05
(PID.TID 0000.0001) %MON dynstat_wvel_mean            =  -1.0200892575085E-22
(PID.TID 0000.0001) %MON dynstat_wvel_sd              =   9.2647261190119E-06
(PID.TID 0000.0001) %MON dynstat_wvel_del2            =   5.4794415606490E-06
(PID.TID 0000.0001) %MON dynstat_theta_max            =   4.0000000000000E+00
(PID.TID 0000.0001) %MON dynstat_theta_min            =   4.0000000000000E+00
(PID.TID 0000.0001) %MON dynstat_theta_mean           =   4.0000000000000E+00
(PID.TID 0000.0001) %MON dynstat_theta_sd             =   0.0000000000000E+00
(PID.TID 0000.0001) %MON dynstat_theta_del2           =   0.0000000000000E+00
(PID.TID 0000.0001) %MON dynstat_salt_max             =   3.5000000000000E+01
(PID.TID 0000.0001) %MON dynstat_salt_min             =   3.5000000000000E+01
(PID.TID 0000.0001) %MON dynstat_salt_mean            =   3.5000000000000E+01
(PID.TID 0000.0001) %MON dynstat_salt_sd              =   0.0000000000000E+00
(PID.TID 0000.0001) %MON dynstat_salt_del2            =   0.0000000000000E+00
(PID.TID 0000.0001) %MON advcfl_uvel_max              =   1.5157529515436E-04
(PID.TID 0000.0001) %MON advcfl_vvel_max              =   3.7979694107923E-04
(PID.TID 0000.0001) %MON advcfl_wvel_max              =   4.5552784148967E-04
(PID.TID 0000.0001) %MON advcfl_W_hf_max              =   1.0155471605217E-03
(PID.TID 0000.0001) %MON pe_b_mean                    =   9.5354169277997E-09
(PID.TID 0000.0001) %MON ke_max                       =   1.3981534125860E-04
(PID.TID 0000.0001) %MON ke_mean                      =   4.7516699169878E-06
(PID.TID 0000.0001) %MON ke_vol                       =   3.5207326431489E+15
(PID.TID 0000.0001) %MON vort_r_min                   =  -7.7768179580777E-08
(PID.TID 0000.0001) %MON vort_r_max                   =   5.5508818298294E-08
(PID.TID 0000.0001) %MON vort_a_mean                  =  -1.1390240000000E-04
(PID.TID 0000.0001) %MON vort_a_sd                    =   3.6988982398930E-06
(PID.TID 0000.0001) %MON vort_p_mean                  =  -2.2184161870152E-04
(PID.TID 0000.0001) %MON vort_p_sd                    =   1.8699487530701E-04
(PID.TID 0000.0001) %MON surfExpan_theta_mean         =  -4.1382008930668E-22
(PID.TID 0000.0001) %MON surfExpan_salt_mean          =  -3.3064262439098E-21
(PID.TID 0000.0001) // =======================================================
(PID.TID 0000.0001) // End MONITOR dynamic field statistics
(PID.TID 0000.0001) // =======================================================
 cg2d: Sum(rhs),rhsMax =  -1.38777878078145E-17  8.67974392961796E-02
(PID.TID 0000.0001)                    cg2d_init_res =    3.75275369091473E-02
(PID.TID 0000.0001)                       cg2d_iters =    17
(PID.TID 0000.0001)                         cg2d_res =    3.60151830868411E-15
(PID.TID 0000.0001) // =======================================================
(PID.TID 0000.0001) // Begin MONITOR dynamic field statistics
(PID.TID 0000.0001) // =======================================================
(PID.TID 0000.0001) %MON time_tsnumber                =                    61
(PID.TID 0000.0001) %MON time_secondsf                =   2.1960000000000E+05
(PID.TID 0000.0001) %MON dynstat_eta_max              =   4.3642724471331E-03
(PID.TID 0000.0001) %MON dynstat_eta_min              =  -4.3441570957589E-03
(PID.TID 0000.0001) %MON dynstat_eta_mean             =   1.4363904483616E-19
(PID.TID 0000.0001) %MON dynstat_eta_sd               =   2.8629419855969E-03
(PID.TID 0000.0001) %MON dynstat_eta_del2             =   9.9603529833289E-04
(PID.TID 0000.0001) %MON dynstat_uvel_max             =   8.4173995273066E-03
(PID.TID 0000.0001) %MON dynstat_uvel_min             =  -3.5811712890903E-03
(PID.TID 0000.0001) %MON dynstat_uvel_mean            =   9.8570157528276E-04
(PID.TID 0000.0001) %MON dynstat_uvel_sd              =   1.5656433166862E-03
(PID.TID 0000.0001) %MON dynstat_uvel_del2            =   1.0159705477551E-03
(PID.TID 0000.0001) %MON dynstat_vvel_max             =   2.0629248801487E-02
(PID.TID 0000.0001) %MON dynstat_vvel_min             =  -3.9676593683978E-03
(PID.TID 0000.0001) %MON dynstat_vvel_mean            =  -2.2195955311263E-06
(PID.TID 0000.0001) %MON dynstat_vvel_sd              =   2.7892407801612E-03
(PID.TID 0000.0001) %MON dynstat_vvel_del2            =   2.0616373761844E-03
(PID.TID 0000.0001) %MON dynstat_wvel_max             =   1.5047166116286E-05
(PID.TID 0000.0001) %MON dynstat_wvel_min             =  -1.5406156174509E-05
(PID.TID 0000.0001) %MON dynstat_wvel_mean            =  -2.1931815094181E-23
(PID.TID 0000.0001) %MON dynstat_wvel_sd              =   9.1656998909293E-06
(PID.TID 0000.0001) %MON dynstat_wvel_del2            =   5.4723698313501E-06
(PID.TID 0000.0001) %MON dynstat_theta_max            =   4.0000000000000E+00
(PID.TID 0000.0001) %MON dynstat_theta_min            =   4.0000000000000E+00
(PID.TID 0000.0001) %MON dynstat_theta_mean           =   4.0000000000000E+00
(PID.TID 0000.0001) %MON dynstat_theta_sd             =   0.0000000000000E+00
(PID.TID 0000.0001) %MON dynstat_theta_del2           =   0.0000000000000E+00
(PID.TID 0000.0001) %MON dynstat_salt_max             =   3.5000000000000E+01
(PID.TID 0000.0001) %MON dynstat_salt_min             =   3.5000000000000E+01
(PID.TID 0000.0001) %MON dynstat_salt_mean            =   3.5000000000000E+01
(PID.TID 0000.0001) %MON dynstat_salt_sd              =   0.0000000000000E+00
(PID.TID 0000.0001) %MON dynstat_salt_del2            =   0.0000000000000E+00
(PID.TID 0000.0001) %MON advcfl_uvel_max              =   1.5151319149152E-04
(PID.TID 0000.0001) %MON advcfl_vvel_max              =   3.7132647842676E-04
(PID.TID 0000.0001) %MON advcfl_wvel_max              =   4.5543269544306E-04
(PID.TID 0000.0001) %MON advcfl_W_hf_max              =   1.0234407081960E-03
(PID.TID 0000.0001) %MON pe_b_mean                    =   9.1352628312689E-09
(PID.TID 0000.0001) %MON ke_max                       =   1.3493017266358E-04
(PID.TID 0000.0001) %MON ke_mean                      =   4.6288741914190E-06
(PID.TID 0000.0001) %MON ke_vol                       =   3.5207326431489E+15
(PID.TID 0000.0001) %MON vort_r_min                   =  -7.5759336415522E-08
(PID.TID 0000.0001) %MON vort_r_max                   =   5.3223702074125E-08
(PID.TID 0000.0001) %MON vort_a_mean                  =  -1.1390240000000E-04
(PID.TID 0000.0001) %MON vort_a_sd                    =   3.6988286503169E-06
(PID.TID 0000.0001) %MON vort_p_mean                  =  -2.2184161870152E-04
(PID.TID 0000.0001) %MON vort_p_sd                    =   1.8699485251651E-04
(PID.TID 0000.0001) %MON surfExpan_theta_mean         =  -4.0017766878009E-22
(PID.TID 0000.0001) %MON surfExpan_salt_mean          =  -1.9395551831281E-21
(PID.TID 0000.0001) // =======================================================
(PID.TID 0000.0001) // End MONITOR dynamic field statistics
(PID.TID 0000.0001) // =======================================================
 cg2d: Sum(rhs),rhsMax =   6.24500451351651E-16  8.73897659407166E-02
(PID.TID 0000.0001)                    cg2d_init_res =    3.71546380298187E-02
(PID.TID 0000.0001)                       cg2d_iters =    17
(PID.TID 0000.0001)                         cg2d_res =    8.16116688944649E-16
(PID.TID 0000.0001) // =======================================================
(PID.TID 0000.0001) // Begin MONITOR dynamic field statistics
(PID.TID 0000.0001) // =======================================================
(PID.TID 0000.0001) %MON time_tsnumber                =                    62
(PID.TID 0000.0001) %MON time_secondsf                =   2.2320000000000E+05
(PID.TID 0000.0001) %MON dynstat_eta_max              =   4.2088612200395E-03
(PID.TID 0000.0001) %MON dynstat_eta_min              =  -4.3732708262199E-03
(PID.TID 0000.0001) %MON dynstat_eta_mean             =  -4.2548403143883E-18
(PID.TID 0000.0001) %MON dynstat_eta_sd               =   2.8032909067624E-03
(PID.TID 0000.0001) %MON dynstat_eta_del2             =   9.8540193646661E-04
(PID.TID 0000.0001) %MON dynstat_uvel_max             =   8.5015573527494E-03
(PID.TID 0000.0001) %MON dynstat_uvel_min             =  -2.9671620135539E-03
(PID.TID 0000.0001) %MON dynstat_uvel_mean            =   9.4944151514782E-04
(PID.TID 0000.0001) %MON dynstat_uvel_sd              =   1.5695428307951E-03
(PID.TID 0000.0001) %MON dynstat_uvel_del2            =   9.8820724407657E-04
(PID.TID 0000.0001) %MON dynstat_vvel_max             =   2.0308201622710E-02
(PID.TID 0000.0001) %MON dynstat_vvel_min             =  -4.4057107687614E-03
(PID.TID 0000.0001) %MON dynstat_vvel_mean            =  -2.1847816849567E-06
(PID.TID 0000.0001) %MON dynstat_vvel_sd              =   2.7615167638982E-03
(PID.TID 0000.0001) %MON dynstat_vvel_del2            =   2.0721622406876E-03
(PID.TID 0000.0001) %MON dynstat_wvel_max             =   1.5239978451029E-05
(PID.TID 0000.0001) %MON dynstat_wvel_min             =  -1.5594851498903E-05
(PID.TID 0000.0001) %MON dynstat_wvel_mean            =   4.4237822294235E-23
(PID.TID 0000.0001) %MON dynstat_wvel_sd              =   9.0955774565529E-06
(PID.TID 0000.0001) %MON dynstat_wvel_del2            =   5.4526677200250E-06
(PID.TID 0000.0001) %MON dynstat_theta_max            =   4.0000000000000E+00
(PID.TID 0000.0001) %MON dynstat_theta_min            =   4.0000000000000E+00
(PID.TID 0000.0001) %MON dynstat_theta_mean           =   4.0000000000000E+00
(PID.TID 0000.0001) %MON dynstat_theta_sd             =   0.0000000000000E+00
(PID.TID 0000.0001) %MON dynstat_theta_del2           =   0.0000000000000E+00
(PID.TID 0000.0001) %MON dynstat_salt_max             =   3.5000000000000E+01
(PID.TID 0000.0001) %MON dynstat_salt_min             =   3.5000000000000E+01
(PID.TID 0000.0001) %MON dynstat_salt_mean            =   3.5000000000000E+01
(PID.TID 0000.0001) %MON dynstat_salt_sd              =   0.0000000000000E+00
(PID.TID 0000.0001) %MON dynstat_salt_del2            =   0.0000000000000E+00
(PID.TID 0000.0001) %MON advcfl_uvel_max              =   1.5302803234949E-04
(PID.TID 0000.0001) %MON advcfl_vvel_max              =   3.6554762920879E-04
(PID.TID 0000.0001) %MON advcfl_wvel_max              =   4.5474138753749E-04
(PID.TID 0000.0001) %MON advcfl_W_hf_max              =   1.0273308995666E-03
(PID.TID 0000.0001) %MON pe_b_mean                    =   8.7585515073827E-09
(PID.TID 0000.0001) %MON ke_max                       =   1.3231736091793E-04
(PID.TID 0000.0001) %MON ke_mean                      =   4.5421942981539E-06
(PID.TID 0000.0001) %MON ke_vol                       =   3.5207326431489E+15
(PID.TID 0000.0001) %MON vort_r_min                   =  -7.3188167930143E-08
(PID.TID 0000.0001) %MON vort_r_max                   =   5.0390318389182E-08
(PID.TID 0000.0001) %MON vort_a_mean                  =  -1.1390240000000E-04
(PID.TID 0000.0001) %MON vort_a_sd                    =   3.6987596534030E-06
(PID.TID 0000.0001) %MON vort_p_mean                  =  -2.2184161870152E-04
(PID.TID 0000.0001) %MON vort_p_sd                    =   1.8699482900040E-04
(PID.TID 0000.0001) %MON surfExpan_theta_mean         =  -1.0243184078718E-21
(PID.TID 0000.0001) %MON surfExpan_salt_mean          =  -5.7574434109142E-21
(PID.TID 0000.0001) // =======================================================
(PID.TID 0000.0001) // End MONITOR dynamic field statistics
(PID.TID 0000.0001) // =======================================================
 cg2d: Sum(rhs),rhsMax =   8.04911692853238E-16  8.79649137638420E-02
(PID.TID 0000.0001)                    cg2d_init_res =    3.64580511588329E-02
(PID.TID 0000.0001)                       cg2d_iters =    17
(PID.TID 0000.0001)                         cg2d_res =    1.52513715873356E-15
(PID.TID 0000.0001) // =======================================================
(PID.TID 0000.0001) // Begin MONITOR dynamic field statistics
(PID.TID 0000.0001) // =======================================================
(PID.TID 0000.0001) %MON time_tsnumber                =                    63
(PID.TID 0000.0001) %MON time_secondsf                =   2.2680000000000E+05
(PID.TID 0000.0001) %MON dynstat_eta_max              =   4.0791636297066E-03
(PID.TID 0000.0001) %MON dynstat_eta_min              =  -4.4317039496187E-03
(PID.TID 0000.0001) %MON dynstat_eta_mean             =  -5.6189019232988E-18
(PID.TID 0000.0001) %MON dynstat_eta_sd               =   2.7465631598819E-03
(PID.TID 0000.0001) %MON dynstat_eta_del2             =   9.7432473323059E-04
(PID.TID 0000.0001) %MON dynstat_uvel_max             =   8.6361637517316E-03
(PID.TID 0000.0001) %MON dynstat_uvel_min             =  -2.2678079941751E-03
(PID.TID 0000.0001) %MON dynstat_uvel_mean            =   9.1366180697327E-04
(PID.TID 0000.0001) %MON dynstat_uvel_sd              =   1.5796164409998E-03
(PID.TID 0000.0001) %MON dynstat_uvel_del2            =   9.5848236585886E-04
(PID.TID 0000.0001) %MON dynstat_vvel_max             =   2.0175658814884E-02
(PID.TID 0000.0001) %MON dynstat_vvel_min             =  -4.4913259640918E-03
(PID.TID 0000.0001) %MON dynstat_vvel_mean            =  -2.1429167011846E-06
(PID.TID 0000.0001) %MON dynstat_vvel_sd              =   2.7496356288543E-03
(PID.TID 0000.0001) %MON dynstat_vvel_del2            =   2.0700385709643E-03
(PID.TID 0000.0001) %MON dynstat_wvel_max             =   1.5268559385843E-05
(PID.TID 0000.0001) %MON dynstat_wvel_min             =  -1.5654297341057E-05
(PID.TID 0000.0001) %MON dynstat_wvel_mean            =  -7.2759576141834E-24
(PID.TID 0000.0001) %MON dynstat_wvel_sd              =   9.0549257394238E-06
(PID.TID 0000.0001) %MON dynstat_wvel_del2            =   5.4236607188616E-06
(PID.TID 0000.0001) %MON dynstat_theta_max            =   4.0000000000000E+00
(PID.TID 0000.0001) %MON dynstat_theta_min            =   4.0000000000000E+00
(PID.TID 0000.0001) %MON dynstat_theta_mean           =   4.0000000000000E+00
(PID.TID 0000.0001) %MON dynstat_theta_sd             =   0.0000000000000E+00
(PID.TID 0000.0001) %MON dynstat_theta_del2           =   0.0000000000000E+00
(PID.TID 0000.0001) %MON dynstat_salt_max             =   3.5000000000000E+01
(PID.TID 0000.0001) %MON dynstat_salt_min             =   3.5000000000000E+01
(PID.TID 0000.0001) %MON dynstat_salt_mean            =   3.5000000000000E+01
(PID.TID 0000.0001) %MON dynstat_salt_sd              =   0.0000000000000E+00
(PID.TID 0000.0001) %MON dynstat_salt_del2            =   0.0000000000000E+00
(PID.TID 0000.0001) %MON advcfl_uvel_max              =   1.5545094753117E-04
(PID.TID 0000.0001) %MON advcfl_vvel_max              =   3.6316185866792E-04
(PID.TID 0000.0001) %MON advcfl_wvel_max              =   4.5366999274979E-04
(PID.TID 0000.0001) %MON advcfl_W_hf_max              =   1.0268215863376E-03
(PID.TID 0000.0001) %MON pe_b_mean                    =   8.4076598443082E-09
(PID.TID 0000.0001) %MON ke_max                       =   1.3202968662326E-04
(PID.TID 0000.0001) %MON ke_mean                      =   4.5001707554331E-06
(PID.TID 0000.0001) %MON ke_vol                       =   3.5207326431489E+15
(PID.TID 0000.0001) %MON vort_r_min                   =  -7.0410578003834E-08
(PID.TID 0000.0001) %MON vort_r_max                   =   4.7361619769322E-08
(PID.TID 0000.0001) %MON vort_a_mean                  =  -1.1390240000000E-04
(PID.TID 0000.0001) %MON vort_a_sd                    =   3.6986929795947E-06
(PID.TID 0000.0001) %MON vort_p_mean                  =  -2.2184161870152E-04
(PID.TID 0000.0001) %MON vort_p_sd                    =   1.8699480665016E-04
(PID.TID 0000.0001) %MON surfExpan_theta_mean         =   4.9453774408903E-22
(PID.TID 0000.0001) %MON surfExpan_salt_mean          =   4.3564041263267E-21
(PID.TID 0000.0001) // =======================================================
(PID.TID 0000.0001) // End MONITOR dynamic field statistics
(PID.TID 0000.0001) // =======================================================
 cg2d: Sum(rhs),rhsMax =   7.63278329429795E-16  8.85227196936137E-02
(PID.TID 0000.0001)                    cg2d_init_res =    3.54587207419598E-02
(PID.TID 0000.0001)                       cg2d_iters =    17
(PID.TID 0000.0001)                         cg2d_res =    6.41454184519341E-16
(PID.TID 0000.0001) // =======================================================
(PID.TID 0000.0001) // Begin MONITOR dynamic field statistics
(PID.TID 0000.0001) // =======================================================
(PID.TID 0000.0001) %MON time_tsnumber                =                    64
(PID.TID 0000.0001) %MON time_secondsf                =   2.3040000000000E+05
(PID.TID 0000.0001) %MON dynstat_eta_max              =   4.1220825078619E-03
(PID.TID 0000.0001) %MON dynstat_eta_min              =  -4.4872513876115E-03
(PID.TID 0000.0001) %MON dynstat_eta_mean             =  -5.4237403674051E-18
(PID.TID 0000.0001) %MON dynstat_eta_sd               =   2.6931741360140E-03
(PID.TID 0000.0001) %MON dynstat_eta_del2             =   9.6297310093726E-04
(PID.TID 0000.0001) %MON dynstat_uvel_max             =   8.7791305396771E-03
(PID.TID 0000.0001) %MON dynstat_uvel_min             =  -1.5994556113279E-03
(PID.TID 0000.0001) %MON dynstat_uvel_mean            =   8.7854788652172E-04
(PID.TID 0000.0001) %MON dynstat_uvel_sd              =   1.5967221012135E-03
(PID.TID 0000.0001) %MON dynstat_uvel_del2            =   9.3460843210824E-04
(PID.TID 0000.0001) %MON dynstat_vvel_max             =   2.0237408438122E-02
(PID.TID 0000.0001) %MON dynstat_vvel_min             =  -4.2253179725290E-03
(PID.TID 0000.0001) %MON dynstat_vvel_mean            =  -2.0949699714252E-06
(PID.TID 0000.0001) %MON dynstat_vvel_sd              =   2.7532701852507E-03
(PID.TID 0000.0001) %MON dynstat_vvel_del2            =   2.0557132275242E-03
(PID.TID 0000.0001) %MON dynstat_wvel_max             =   1.5129304000423E-05
(PID.TID 0000.0001) %MON dynstat_wvel_min             =  -1.5578737683405E-05
(PID.TID 0000.0001) %MON dynstat_wvel_mean            =   5.7043507695198E-23
(PID.TID 0000.0001) %MON dynstat_wvel_sd              =   9.0436898822933E-06
(PID.TID 0000.0001) %MON dynstat_wvel_del2            =   5.3879438997799E-06
(PID.TID 0000.0001) %MON dynstat_theta_max            =   4.0000000000000E+00
(PID.TID 0000.0001) %MON dynstat_theta_min            =   4.0000000000000E+00
(PID.TID 0000.0001) %MON dynstat_theta_mean           =   4.0000000000000E+00
(PID.TID 0000.0001) %MON dynstat_theta_sd             =   0.0000000000000E+00
(PID.TID 0000.0001) %MON dynstat_theta_del2           =   0.0000000000000E+00
(PID.TID 0000.0001) %MON dynstat_salt_max             =   3.5000000000000E+01
(PID.TID 0000.0001) %MON dynstat_salt_min             =   3.5000000000000E+01
(PID.TID 0000.0001) %MON dynstat_salt_mean            =   3.5000000000000E+01
(PID.TID 0000.0001) %MON dynstat_salt_sd              =   0.0000000000000E+00
(PID.TID 0000.0001) %MON dynstat_salt_del2            =   0.0000000000000E+00
(PID.TID 0000.0001) %MON advcfl_uvel_max              =   1.5802434971419E-04
(PID.TID 0000.0001) %MON advcfl_vvel_max              =   3.6427335188619E-04
(PID.TID 0000.0001) %MON advcfl_wvel_max              =   4.5242418844287E-04
(PID.TID 0000.0001) %MON advcfl_W_hf_max              =   1.0219347445073E-03
(PID.TID 0000.0001) %MON pe_b_mean                    =   8.0839723960632E-09
(PID.TID 0000.0001) %MON ke_max                       =   1.3377615741500E-04
(PID.TID 0000.0001) %MON ke_mean                      =   4.5033718419163E-06
(PID.TID 0000.0001) %MON ke_vol                       =   3.5207326431489E+15
(PID.TID 0000.0001) %MON vort_r_min                   =  -6.7797205599218E-08
(PID.TID 0000.0001) %MON vort_r_max                   =   4.4504632023479E-08
(PID.TID 0000.0001) %MON vort_a_mean                  =  -1.1390240000000E-04
(PID.TID 0000.0001) %MON vort_a_sd                    =   3.6986303964025E-06
(PID.TID 0000.0001) %MON vort_p_mean                  =  -2.2184161870152E-04
(PID.TID 0000.0001) %MON vort_p_sd                    =   1.8699478743924E-04
(PID.TID 0000.0001) %MON surfExpan_theta_mean         =   2.7057467377745E-22
(PID.TID 0000.0001) %MON surfExpan_salt_mean          =   2.6906787908842E-21
(PID.TID 0000.0001) // =======================================================
(PID.TID 0000.0001) // End MONITOR dynamic field statistics
(PID.TID 0000.0001) // =======================================================
 cg2d: Sum(rhs),rhsMax =   6.10622663543836E-16  8.90540992000183E-02
(PID.TID 0000.0001)                    cg2d_init_res =    3.42338004808757E-02
(PID.TID 0000.0001)                       cg2d_iters =    17
(PID.TID 0000.0001)                         cg2d_res =    4.14190483637549E-16
(PID.TID 0000.0001) // =======================================================
(PID.TID 0000.0001) // Begin MONITOR dynamic field statistics
(PID.TID 0000.0001) // =======================================================
(PID.TID 0000.0001) %MON time_tsnumber                =                    65
(PID.TID 0000.0001) %MON time_secondsf                =   2.3400000000000E+05
(PID.TID 0000.0001) %MON dynstat_eta_max              =   4.1625011729206E-03
(PID.TID 0000.0001) %MON dynstat_eta_min              =  -4.5396806192289E-03
(PID.TID 0000.0001) %MON dynstat_eta_mean             =  -4.5808294089511E-18
(PID.TID 0000.0001) %MON dynstat_eta_sd               =   2.6433618997558E-03
(PID.TID 0000.0001) %MON dynstat_eta_del2             =   9.5147817564482E-04
(PID.TID 0000.0001) %MON dynstat_uvel_max             =   8.8904426476204E-03
(PID.TID 0000.0001) %MON dynstat_uvel_min             =  -1.0963599914388E-03
(PID.TID 0000.0001) %MON dynstat_uvel_mean            =   8.4426247520772E-04
(PID.TID 0000.0001) %MON dynstat_uvel_sd              =   1.6173885277206E-03
(PID.TID 0000.0001) %MON dynstat_uvel_del2            =   9.1903010634571E-04
(PID.TID 0000.0001) %MON dynstat_vvel_max             =   2.0467211505701E-02
(PID.TID 0000.0001) %MON dynstat_vvel_min             =  -3.6592782571023E-03
(PID.TID 0000.0001) %MON dynstat_vvel_mean            =  -2.0419425869060E-06
(PID.TID 0000.0001) %MON dynstat_vvel_sd              =   2.7714789833129E-03
(PID.TID 0000.0001) %MON dynstat_vvel_del2            =   2.0309970923144E-03
(PID.TID 0000.0001) %MON dynstat_wvel_max             =   1.4839400687040E-05
(PID.TID 0000.0001) %MON dynstat_wvel_min             =  -1.5376729089645E-05
(PID.TID 0000.0001) %MON dynstat_wvel_mean            =   9.1469181435449E-24
(PID.TID 0000.0001) %MON dynstat_wvel_sd              =   9.0631509538402E-06
(PID.TID 0000.0001) %MON dynstat_wvel_del2            =   5.3471813249488E-06
(PID.TID 0000.0001) %MON dynstat_theta_max            =   4.0000000000000E+00
(PID.TID 0000.0001) %MON dynstat_theta_min            =   4.0000000000000E+00
(PID.TID 0000.0001) %MON dynstat_theta_mean           =   4.0000000000000E+00
(PID.TID 0000.0001) %MON dynstat_theta_sd             =   0.0000000000000E+00
(PID.TID 0000.0001) %MON dynstat_theta_del2           =   0.0000000000000E+00
(PID.TID 0000.0001) %MON dynstat_salt_max             =   3.5000000000000E+01
(PID.TID 0000.0001) %MON dynstat_salt_min             =   3.5000000000000E+01
(PID.TID 0000.0001) %MON dynstat_salt_mean            =   3.5000000000000E+01
(PID.TID 0000.0001) %MON dynstat_salt_sd              =   0.0000000000000E+00
(PID.TID 0000.0001) %MON dynstat_salt_del2            =   0.0000000000000E+00
(PID.TID 0000.0001) %MON advcfl_uvel_max              =   1.6002796765717E-04
(PID.TID 0000.0001) %MON advcfl_vvel_max              =   3.6840980710262E-04
(PID.TID 0000.0001) %MON advcfl_wvel_max              =   4.5116934115905E-04
(PID.TID 0000.0001) %MON advcfl_W_hf_max              =   1.0131039486185E-03
(PID.TID 0000.0001) %MON pe_b_mean                    =   7.7876998310457E-09
(PID.TID 0000.0001) %MON ke_max                       =   1.3699205993973E-04
(PID.TID 0000.0001) %MON ke_mean                      =   4.5447748600010E-06
(PID.TID 0000.0001) %MON ke_vol                       =   3.5207326431489E+15
(PID.TID 0000.0001) %MON vort_r_min                   =  -6.5678491789778E-08
(PID.TID 0000.0001) %MON vort_r_max                   =   4.4452213238102E-08
(PID.TID 0000.0001) %MON vort_a_mean                  =  -1.1390240000000E-04
(PID.TID 0000.0001) %MON vort_a_sd                    =   3.6985734476186E-06
(PID.TID 0000.0001) %MON vort_p_mean                  =  -2.2184161870152E-04
(PID.TID 0000.0001) %MON vort_p_sd                    =   1.8699477307072E-04
(PID.TID 0000.0001) %MON surfExpan_theta_mean         =   7.8102857514750E-22
(PID.TID 0000.0001) %MON surfExpan_salt_mean          =   6.5593352971405E-21
(PID.TID 0000.0001) // =======================================================
(PID.TID 0000.0001) // End MONITOR dynamic field statistics
(PID.TID 0000.0001) // =======================================================
 cg2d: Sum(rhs),rhsMax =   3.74700270810990E-16  8.95427877954063E-02
(PID.TID 0000.0001)                    cg2d_init_res =    3.28970199703925E-02
(PID.TID 0000.0001)                       cg2d_iters =    17
(PID.TID 0000.0001)                         cg2d_res =    1.19977086263161E-15
(PID.TID 0000.0001) // =======================================================
(PID.TID 0000.0001) // Begin MONITOR dynamic field statistics
(PID.TID 0000.0001) // =======================================================
(PID.TID 0000.0001) %MON time_tsnumber                =                    66
(PID.TID 0000.0001) %MON time_secondsf                =   2.3760000000000E+05
(PID.TID 0000.0001) %MON dynstat_eta_max              =   4.1998945119063E-03
(PID.TID 0000.0001) %MON dynstat_eta_min              =  -4.5884209338452E-03
(PID.TID 0000.0001) %MON dynstat_eta_mean             =  -2.6319030439481E-18
(PID.TID 0000.0001) %MON dynstat_eta_sd               =   2.5971630082801E-03
(PID.TID 0000.0001) %MON dynstat_eta_del2             =   9.3992148073907E-04
(PID.TID 0000.0001) %MON dynstat_uvel_max             =   8.9384127137222E-03
(PID.TID 0000.0001) %MON dynstat_uvel_min             =  -1.1891994005193E-03
(PID.TID 0000.0001) %MON dynstat_uvel_mean            =   8.1093676451900E-04
(PID.TID 0000.0001) %MON dynstat_uvel_sd              =   1.6361050076658E-03
(PID.TID 0000.0001) %MON dynstat_uvel_del2            =   9.1313648163843E-04
(PID.TID 0000.0001) %MON dynstat_vvel_max             =   2.0812788977951E-02
(PID.TID 0000.0001) %MON dynstat_vvel_min             =  -2.8854003066065E-03
(PID.TID 0000.0001) %MON dynstat_vvel_mean            =  -1.9847499442361E-06
(PID.TID 0000.0001) %MON dynstat_vvel_sd              =   2.8019413844199E-03
(PID.TID 0000.0001) %MON dynstat_vvel_del2            =   1.9987742079560E-03
(PID.TID 0000.0001) %MON dynstat_wvel_max             =   1.4434085164529E-05
(PID.TID 0000.0001) %MON dynstat_wvel_min             =  -1.5069956460331E-05
(PID.TID 0000.0001) %MON dynstat_wvel_mean            =   3.8791248308761E-23
(PID.TID 0000.0001) %MON dynstat_wvel_sd              =   9.1120774044124E-06
(PID.TID 0000.0001) %MON dynstat_wvel_del2            =   5.3020909273810E-06
(PID.TID 0000.0001) %MON dynstat_theta_max            =   4.0000000000000E+00
(PID.TID 0000.0001) %MON dynstat_theta_min            =   4.0000000000000E+00
(PID.TID 0000.0001) %MON dynstat_theta_mean           =   4.0000000000000E+00
(PID.TID 0000.0001) %MON dynstat_theta_sd             =   0.0000000000000E+00
(PID.TID 0000.0001) %MON dynstat_theta_del2           =   0.0000000000000E+00
(PID.TID 0000.0001) %MON dynstat_salt_max             =   3.5000000000000E+01
(PID.TID 0000.0001) %MON dynstat_salt_min             =   3.5000000000000E+01
(PID.TID 0000.0001) %MON dynstat_salt_mean            =   3.5000000000000E+01
(PID.TID 0000.0001) %MON dynstat_salt_sd              =   0.0000000000000E+00
(PID.TID 0000.0001) %MON dynstat_salt_del2            =   0.0000000000000E+00
(PID.TID 0000.0001) %MON advcfl_uvel_max              =   1.6089142884700E-04
(PID.TID 0000.0001) %MON advcfl_vvel_max              =   3.7463020160311E-04
(PID.TID 0000.0001) %MON advcfl_wvel_max              =   4.5000778426333E-04
(PID.TID 0000.0001) %MON advcfl_W_hf_max              =   1.0011108107179E-03
(PID.TID 0000.0001) %MON pe_b_mean                    =   7.5178623361988E-09
(PID.TID 0000.0001) %MON ke_max                       =   1.4093087921786E-04
(PID.TID 0000.0001) %MON ke_mean                      =   4.6113088139379E-06
(PID.TID 0000.0001) %MON ke_vol                       =   3.5207326431489E+15
(PID.TID 0000.0001) %MON vort_r_min                   =  -6.4298386144062E-08
(PID.TID 0000.0001) %MON vort_r_max                   =   4.4692063568611E-08
(PID.TID 0000.0001) %MON vort_a_mean                  =  -1.1390240000000E-04
(PID.TID 0000.0001) %MON vort_a_sd                    =   3.6985232371020E-06
(PID.TID 0000.0001) %MON vort_p_mean                  =  -2.2184161870152E-04
(PID.TID 0000.0001) %MON vort_p_sd                    =   1.8699476467672E-04
(PID.TID 0000.0001) %MON surfExpan_theta_mean         =  -1.5688783605583E-22
(PID.TID 0000.0001) %MON surfExpan_salt_mean          =   1.2905365665006E-21
(PID.TID 0000.0001) // =======================================================
(PID.TID 0000.0001) // End MONITOR dynamic field statistics
(PID.TID 0000.0001) // =======================================================
 cg2d: Sum(rhs),rhsMax =   5.68989300120393E-16  8.99681683609922E-02
(PID.TID 0000.0001)                    cg2d_init_res =    3.15763661829670E-02
(PID.TID 0000.0001)                       cg2d_iters =    17
(PID.TID 0000.0001)                         cg2d_res =    2.01935781781999E-15
(PID.TID 0000.0001) // =======================================================
(PID.TID 0000.0001) // Begin MONITOR dynamic field statistics
(PID.TID 0000.0001) // =======================================================
(PID.TID 0000.0001) %MON time_tsnumber                =                    67
(PID.TID 0000.0001) %MON time_secondsf                =   2.4120000000000E+05
(PID.TID 0000.0001) %MON dynstat_eta_max              =   4.2334385882635E-03
(PID.TID 0000.0001) %MON dynstat_eta_min              =  -4.6326579847298E-03
(PID.TID 0000.0001) %MON dynstat_eta_mean             =  -4.0386628825217E-18
(PID.TID 0000.0001) %MON dynstat_eta_sd               =   2.5544170188313E-03
(PID.TID 0000.0001) %MON dynstat_eta_del2             =   9.2833165228976E-04
(PID.TID 0000.0001) %MON dynstat_uvel_max             =   8.9042787900135E-03
(PID.TID 0000.0001) %MON dynstat_uvel_min             =  -1.2623718860685E-03
(PID.TID 0000.0001) %MON dynstat_uvel_mean            =   7.7866613291158E-04
(PID.TID 0000.0001) %MON dynstat_uvel_sd              =   1.6485427326821E-03
(PID.TID 0000.0001) %MON dynstat_uvel_del2            =   9.1447214426737E-04
(PID.TID 0000.0001) %MON dynstat_vvel_max             =   2.1205461885890E-02
(PID.TID 0000.0001) %MON dynstat_vvel_min             =  -2.5798228149608E-03
(PID.TID 0000.0001) %MON dynstat_vvel_mean            =  -1.9241229422154E-06
(PID.TID 0000.0001) %MON dynstat_vvel_sd              =   2.8398393276326E-03
(PID.TID 0000.0001) %MON dynstat_vvel_del2            =   1.9640842710323E-03
(PID.TID 0000.0001) %MON dynstat_wvel_max             =   1.3961197425508E-05
(PID.TID 0000.0001) %MON dynstat_wvel_min             =  -1.4690193388223E-05
(PID.TID 0000.0001) %MON dynstat_wvel_mean            =   1.5713989601604E-22
(PID.TID 0000.0001) %MON dynstat_wvel_sd              =   9.1806536708829E-06
(PID.TID 0000.0001) %MON dynstat_wvel_del2            =   5.2526040940287E-06
(PID.TID 0000.0001) %MON dynstat_theta_max            =   4.0000000000000E+00
(PID.TID 0000.0001) %MON dynstat_theta_min            =   4.0000000000000E+00
(PID.TID 0000.0001) %MON dynstat_theta_mean           =   4.0000000000000E+00
(PID.TID 0000.0001) %MON dynstat_theta_sd             =   0.0000000000000E+00
(PID.TID 0000.0001) %MON dynstat_theta_del2           =   0.0000000000000E+00
(PID.TID 0000.0001) %MON dynstat_salt_max             =   3.5000000000000E+01
(PID.TID 0000.0001) %MON dynstat_salt_min             =   3.5000000000000E+01
(PID.TID 0000.0001) %MON dynstat_salt_mean            =   3.5000000000000E+01
(PID.TID 0000.0001) %MON dynstat_salt_sd              =   0.0000000000000E+00
(PID.TID 0000.0001) %MON dynstat_salt_del2            =   0.0000000000000E+00
(PID.TID 0000.0001) %MON advcfl_uvel_max              =   1.6027701822024E-04
(PID.TID 0000.0001) %MON advcfl_vvel_max              =   3.8169831394602E-04
(PID.TID 0000.0001) %MON advcfl_wvel_max              =   4.4896663664361E-04
(PID.TID 0000.0001) %MON advcfl_W_hf_max              =   9.8697634232440E-04
(PID.TID 0000.0001) %MON pe_b_mean                    =   7.2724300025850E-09
(PID.TID 0000.0001) %MON ke_max                       =   1.4477200466618E-04
(PID.TID 0000.0001) %MON ke_mean                      =   4.6862662098928E-06
(PID.TID 0000.0001) %MON ke_vol                       =   3.5207326431489E+15
(PID.TID 0000.0001) %MON vort_r_min                   =  -6.3783300496047E-08
(PID.TID 0000.0001) %MON vort_r_max                   =   4.4521393950067E-08
(PID.TID 0000.0001) %MON vort_a_mean                  =  -1.1390240000000E-04
(PID.TID 0000.0001) %MON vort_a_sd                    =   3.6984802868198E-06
(PID.TID 0000.0001) %MON vort_p_mean                  =  -2.2184161870152E-04
(PID.TID 0000.0001) %MON vort_p_sd                    =   1.8699476261884E-04
(PID.TID 0000.0001) %MON surfExpan_theta_mean         =   5.9117155615240E-22
(PID.TID 0000.0001) %MON surfExpan_salt_mean          =   5.3196469451677E-21
(PID.TID 0000.0001) // =======================================================
(PID.TID 0000.0001) // End MONITOR dynamic field statistics
(PID.TID 0000.0001) // =======================================================
 cg2d: Sum(rhs),rhsMax =   7.42461647718073E-16  9.03087171850266E-02
(PID.TID 0000.0001)                    cg2d_init_res =    3.03936630336693E-02
(PID.TID 0000.0001)                       cg2d_iters =    17
(PID.TID 0000.0001)                         cg2d_res =    2.13198658837503E-15
(PID.TID 0000.0001) // =======================================================
(PID.TID 0000.0001) // Begin MONITOR dynamic field statistics
(PID.TID 0000.0001) // =======================================================
(PID.TID 0000.0001) %MON time_tsnumber                =                    68
(PID.TID 0000.0001) %MON time_secondsf                =   2.4480000000000E+05
(PID.TID 0000.0001) %MON dynstat_eta_max              =   4.2621501756432E-03
(PID.TID 0000.0001) %MON dynstat_eta_min              =  -4.6714658158776E-03
(PID.TID 0000.0001) %MON dynstat_eta_mean             =  -5.4467862355523E-18
(PID.TID 0000.0001) %MON dynstat_eta_sd               =   2.5147973313238E-03
(PID.TID 0000.0001) %MON dynstat_eta_del2             =   9.1668944885790E-04
(PID.TID 0000.0001) %MON dynstat_uvel_max             =   8.7845375749075E-03
(PID.TID 0000.0001) %MON dynstat_uvel_min             =  -1.3165780356877E-03
(PID.TID 0000.0001) %MON dynstat_uvel_mean            =   7.4751089315019E-04
(PID.TID 0000.0001) %MON dynstat_uvel_sd              =   1.6537395716052E-03
(PID.TID 0000.0001) %MON dynstat_uvel_del2            =   9.2219381706408E-04
(PID.TID 0000.0001) %MON dynstat_vvel_max             =   2.1571775503508E-02
(PID.TID 0000.0001) %MON dynstat_vvel_min             =  -2.6037209621346E-03
(PID.TID 0000.0001) %MON dynstat_vvel_mean            =  -1.8605419671328E-06
(PID.TID 0000.0001) %MON dynstat_vvel_sd              =   2.8776595769771E-03
(PID.TID 0000.0001) %MON dynstat_vvel_del2            =   1.9296973774122E-03
(PID.TID 0000.0001) %MON dynstat_wvel_max             =   1.3599974843510E-05
(PID.TID 0000.0001) %MON dynstat_wvel_min             =  -1.4274908103271E-05
(PID.TID 0000.0001) %MON dynstat_wvel_mean            =   8.2301474841578E-23
(PID.TID 0000.0001) %MON dynstat_wvel_sd              =   9.2476396850772E-06
(PID.TID 0000.0001) %MON dynstat_wvel_del2            =   5.1981619563994E-06
(PID.TID 0000.0001) %MON dynstat_theta_max            =   4.0000000000000E+00
(PID.TID 0000.0001) %MON dynstat_theta_min            =   4.0000000000000E+00
(PID.TID 0000.0001) %MON dynstat_theta_mean           =   4.0000000000000E+00
(PID.TID 0000.0001) %MON dynstat_theta_sd             =   0.0000000000000E+00
(PID.TID 0000.0001) %MON dynstat_theta_del2           =   0.0000000000000E+00
(PID.TID 0000.0001) %MON dynstat_salt_max             =   3.5000000000000E+01
(PID.TID 0000.0001) %MON dynstat_salt_min             =   3.5000000000000E+01
(PID.TID 0000.0001) %MON dynstat_salt_mean            =   3.5000000000000E+01
(PID.TID 0000.0001) %MON dynstat_salt_sd              =   0.0000000000000E+00
(PID.TID 0000.0001) %MON dynstat_salt_del2            =   0.0000000000000E+00
(PID.TID 0000.0001) %MON advcfl_uvel_max              =   1.5812167634833E-04
(PID.TID 0000.0001) %MON advcfl_vvel_max              =   3.8829195906314E-04
(PID.TID 0000.0001) %MON advcfl_wvel_max              =   4.4799778759706E-04
(PID.TID 0000.0001) %MON advcfl_W_hf_max              =   9.7182508364964E-04
(PID.TID 0000.0001) %MON pe_b_mean                    =   7.0485848710734E-09
(PID.TID 0000.0001) %MON ke_max                       =   1.4773863975380E-04
(PID.TID 0000.0001) %MON ke_mean                      =   4.7521615915048E-06
(PID.TID 0000.0001) %MON ke_vol                       =   3.5207326431489E+15
(PID.TID 0000.0001) %MON vort_r_min                   =  -6.4130252834960E-08
(PID.TID 0000.0001) %MON vort_r_max                   =   4.3922687874537E-08
(PID.TID 0000.0001) %MON vort_a_mean                  =  -1.1390240000000E-04
(PID.TID 0000.0001) %MON vort_a_sd                    =   3.6984444851794E-06
(PID.TID 0000.0001) %MON vort_p_mean                  =  -2.2184161870152E-04
(PID.TID 0000.0001) %MON vort_p_sd                    =   1.8699476642107E-04
(PID.TID 0000.0001) %MON surfExpan_theta_mean         =  -2.3078428057488E-22
(PID.TID 0000.0001) %MON surfExpan_salt_mean          =  -9.1347818198528E-22
(PID.TID 0000.0001) // =======================================================
(PID.TID 0000.0001) // End MONITOR dynamic field statistics
(PID.TID 0000.0001) // =======================================================
 cg2d: Sum(rhs),rhsMax =   8.53483950180589E-16  9.05455210781511E-02
(PID.TID 0000.0001)                    cg2d_init_res =    2.94481602749002E-02
(PID.TID 0000.0001)                       cg2d_iters =    17
(PID.TID 0000.0001)                         cg2d_res =    1.56734508322229E-15
(PID.TID 0000.0001) // =======================================================
(PID.TID 0000.0001) // Begin MONITOR dynamic field statistics
(PID.TID 0000.0001) // =======================================================
(PID.TID 0000.0001) %MON time_tsnumber                =                    69
(PID.TID 0000.0001) %MON time_secondsf                =   2.4840000000000E+05
(PID.TID 0000.0001) %MON dynstat_eta_max              =   4.2850494768048E-03
(PID.TID 0000.0001) %MON dynstat_eta_min              =  -4.7039550942616E-03
(PID.TID 0000.0001) %MON dynstat_eta_mean             =  -6.4185092924163E-18
(PID.TID 0000.0001) %MON dynstat_eta_sd               =   2.4778614899338E-03
(PID.TID 0000.0001) %MON dynstat_eta_del2             =   9.0493997698892E-04
(PID.TID 0000.0001) %MON dynstat_uvel_max             =   8.5907819883274E-03
(PID.TID 0000.0001) %MON dynstat_uvel_min             =  -1.3549415651277E-03
(PID.TID 0000.0001) %MON dynstat_uvel_mean            =   7.1750177240529E-04
(PID.TID 0000.0001) %MON dynstat_uvel_sd              =   1.6542520800164E-03
(PID.TID 0000.0001) %MON dynstat_uvel_del2            =   9.3653782331432E-04
(PID.TID 0000.0001) %MON dynstat_vvel_max             =   2.1845227929524E-02
(PID.TID 0000.0001) %MON dynstat_vvel_min             =  -2.6210787327873E-03
(PID.TID 0000.0001) %MON dynstat_vvel_mean            =  -1.7942128735973E-06
(PID.TID 0000.0001) %MON dynstat_vvel_sd              =   2.9064888075929E-03
(PID.TID 0000.0001) %MON dynstat_vvel_del2            =   1.8980270593518E-03
(PID.TID 0000.0001) %MON dynstat_wvel_max             =   1.3795074153796E-05
(PID.TID 0000.0001) %MON dynstat_wvel_min             =  -1.4013747598239E-05
(PID.TID 0000.0001) %MON dynstat_wvel_mean            =   1.8085951783827E-24
(PID.TID 0000.0001) %MON dynstat_wvel_sd              =   9.2839282390994E-06
(PID.TID 0000.0001) %MON dynstat_wvel_del2            =   5.1380902114106E-06
(PID.TID 0000.0001) %MON dynstat_theta_max            =   4.0000000000000E+00
(PID.TID 0000.0001) %MON dynstat_theta_min            =   4.0000000000000E+00
(PID.TID 0000.0001) %MON dynstat_theta_mean           =   4.0000000000000E+00
(PID.TID 0000.0001) %MON dynstat_theta_sd             =   0.0000000000000E+00
(PID.TID 0000.0001) %MON dynstat_theta_del2           =   0.0000000000000E+00
(PID.TID 0000.0001) %MON dynstat_salt_max             =   3.5000000000000E+01
(PID.TID 0000.0001) %MON dynstat_salt_min             =   3.5000000000000E+01
(PID.TID 0000.0001) %MON dynstat_salt_mean            =   3.5000000000000E+01
(PID.TID 0000.0001) %MON dynstat_salt_sd              =   0.0000000000000E+00
(PID.TID 0000.0001) %MON dynstat_salt_del2            =   0.0000000000000E+00
(PID.TID 0000.0001) %MON advcfl_uvel_max              =   1.5463407578989E-04
(PID.TID 0000.0001) %MON advcfl_vvel_max              =   3.9321410273143E-04
(PID.TID 0000.0001) %MON advcfl_wvel_max              =   4.4698972574623E-04
(PID.TID 0000.0001) %MON advcfl_W_hf_max              =   9.5674276354023E-04
(PID.TID 0000.0001) %MON pe_b_mean                    =   6.8430545799206E-09
(PID.TID 0000.0001) %MON ke_max                       =   1.4921483173852E-04
(PID.TID 0000.0001) %MON ke_mean                      =   4.7935595217702E-06
(PID.TID 0000.0001) %MON ke_vol                       =   3.5207326431489E+15
(PID.TID 0000.0001) %MON vort_r_min                   =  -6.5215016457466E-08
(PID.TID 0000.0001) %MON vort_r_max                   =   4.2953909941637E-08
(PID.TID 0000.0001) %MON vort_a_mean                  =  -1.1390240000000E-04
(PID.TID 0000.0001) %MON vort_a_sd                    =   3.6984151284550E-06
(PID.TID 0000.0001) %MON vort_p_mean                  =  -2.2184161870152E-04
(PID.TID 0000.0001) %MON vort_p_sd                    =   1.8699477484429E-04
(PID.TID 0000.0001) %MON surfExpan_theta_mean         =   3.8994585338514E-22
(PID.TID 0000.0001) %MON surfExpan_salt_mean          =   3.4331337772642E-21
(PID.TID 0000.0001) // =======================================================
(PID.TID 0000.0001) // End MONITOR dynamic field statistics
(PID.TID 0000.0001) // =======================================================
 cg2d: Sum(rhs),rhsMax =   9.36750677027476E-16  9.06653202817038E-02
(PID.TID 0000.0001)                    cg2d_init_res =    2.88038547816254E-02
(PID.TID 0000.0001)                       cg2d_iters =    17
(PID.TID 0000.0001)                         cg2d_res =    4.92847872714725E-16
(PID.TID 0000.0001) // =======================================================
(PID.TID 0000.0001) // Begin MONITOR dynamic field statistics
(PID.TID 0000.0001) // =======================================================
(PID.TID 0000.0001) %MON time_tsnumber                =                    70
(PID.TID 0000.0001) %MON time_secondsf                =   2.5200000000000E+05
(PID.TID 0000.0001) %MON dynstat_eta_max              =   4.3013196896004E-03
(PID.TID 0000.0001) %MON dynstat_eta_min              =  -4.7294141861462E-03
(PID.TID 0000.0001) %MON dynstat_eta_mean             =  -6.7037646658719E-18
(PID.TID 0000.0001) %MON dynstat_eta_sd               =   2.4431118067594E-03
(PID.TID 0000.0001) %MON dynstat_eta_del2             =   8.9300998401846E-04
(PID.TID 0000.0001) %MON dynstat_uvel_max             =   8.3472022974621E-03
(PID.TID 0000.0001) %MON dynstat_uvel_min             =  -1.8978443862204E-03
(PID.TID 0000.0001) %MON dynstat_uvel_mean            =   6.8864910170678E-04
(PID.TID 0000.0001) %MON dynstat_uvel_sd              =   1.6544255498660E-03
(PID.TID 0000.0001) %MON dynstat_uvel_del2            =   9.5564787107652E-04
(PID.TID 0000.0001) %MON dynstat_vvel_max             =   2.1976308315262E-02
(PID.TID 0000.0001) %MON dynstat_vvel_min             =  -2.6288734024514E-03
(PID.TID 0000.0001) %MON dynstat_vvel_mean            =  -1.7250878124663E-06
(PID.TID 0000.0001) %MON dynstat_vvel_sd              =   2.9183295138400E-03
(PID.TID 0000.0001) %MON dynstat_vvel_del2            =   1.8713933125491E-03
(PID.TID 0000.0001) %MON dynstat_wvel_max             =   1.3831731597892E-05
(PID.TID 0000.0001) %MON dynstat_wvel_min             =  -1.4073071592878E-05
(PID.TID 0000.0001) %MON dynstat_wvel_mean            =   6.2427716329694E-23
(PID.TID 0000.0001) %MON dynstat_wvel_sd              =   9.2612518595567E-06
(PID.TID 0000.0001) %MON dynstat_wvel_del2            =   5.0719841442142E-06
(PID.TID 0000.0001) %MON dynstat_theta_max            =   4.0000000000000E+00
(PID.TID 0000.0001) %MON dynstat_theta_min            =   4.0000000000000E+00
(PID.TID 0000.0001) %MON dynstat_theta_mean           =   4.0000000000000E+00
(PID.TID 0000.0001) %MON dynstat_theta_sd             =   0.0000000000000E+00
(PID.TID 0000.0001) %MON dynstat_theta_del2           =   0.0000000000000E+00
(PID.TID 0000.0001) %MON dynstat_salt_max             =   3.5000000000000E+01
(PID.TID 0000.0001) %MON dynstat_salt_min             =   3.5000000000000E+01
(PID.TID 0000.0001) %MON dynstat_salt_mean            =   3.5000000000000E+01
(PID.TID 0000.0001) %MON dynstat_salt_sd              =   0.0000000000000E+00
(PID.TID 0000.0001) %MON dynstat_salt_del2            =   0.0000000000000E+00
(PID.TID 0000.0001) %MON advcfl_uvel_max              =   1.5024964135432E-04
(PID.TID 0000.0001) %MON advcfl_vvel_max              =   3.9557354967472E-04
(PID.TID 0000.0001) %MON advcfl_wvel_max              =   4.4578903429503E-04
(PID.TID 0000.0001) %MON advcfl_W_hf_max              =   9.4264802093441E-04
(PID.TID 0000.0001) %MON pe_b_mean                    =   6.6524655895303E-09
(PID.TID 0000.0001) %MON ke_max                       =   1.4884333380595E-04
(PID.TID 0000.0001) %MON ke_mean                      =   4.7994245403947E-06
(PID.TID 0000.0001) %MON ke_vol                       =   3.5207326431489E+15
(PID.TID 0000.0001) %MON vort_r_min                   =  -6.6817999820617E-08
(PID.TID 0000.0001) %MON vort_r_max                   =   4.2101596228505E-08
(PID.TID 0000.0001) %MON vort_a_mean                  =  -1.1390240000000E-04
(PID.TID 0000.0001) %MON vort_a_sd                    =   3.6983910464227E-06
(PID.TID 0000.0001) %MON vort_p_mean                  =  -2.2184161870152E-04
(PID.TID 0000.0001) %MON vort_p_sd                    =   1.8699478608876E-04
(PID.TID 0000.0001) %MON surfExpan_theta_mean         =   9.2200025392231E-22
(PID.TID 0000.0001) %MON surfExpan_salt_mean          =   5.5651172559124E-21
(PID.TID 0000.0001) // =======================================================
(PID.TID 0000.0001) // End MONITOR dynamic field statistics
(PID.TID 0000.0001) // =======================================================
 cg2d: Sum(rhs),rhsMax =   5.75928194024300E-16  9.06626164589074E-02
(PID.TID 0000.0001)                    cg2d_init_res =    2.84797724017657E-02
(PID.TID 0000.0001)                       cg2d_iters =    17
(PID.TID 0000.0001)                         cg2d_res =    1.33313494683031E-15
(PID.TID 0000.0001) // =======================================================
(PID.TID 0000.0001) // Begin MONITOR dynamic field statistics
(PID.TID 0000.0001) // =======================================================
(PID.TID 0000.0001) %MON time_tsnumber                =                    71
(PID.TID 0000.0001) %MON time_secondsf                =   2.5560000000000E+05
(PID.TID 0000.0001) %MON dynstat_eta_max              =   4.3104387259843E-03
(PID.TID 0000.0001) %MON dynstat_eta_min              =  -4.7474212017974E-03
(PID.TID 0000.0001) %MON dynstat_eta_mean             =  -4.2920859414153E-18
(PID.TID 0000.0001) %MON dynstat_eta_sd               =   2.4100570239357E-03
(PID.TID 0000.0001) %MON dynstat_eta_del2             =   8.8082735728435E-04
(PID.TID 0000.0001) %MON dynstat_uvel_max             =   8.0862556915078E-03
(PID.TID 0000.0001) %MON dynstat_uvel_min             =  -2.5387040235916E-03
(PID.TID 0000.0001) %MON dynstat_uvel_mean            =   6.6095414654366E-04
(PID.TID 0000.0001) %MON dynstat_uvel_sd              =   1.6578199334725E-03
(PID.TID 0000.0001) %MON dynstat_uvel_del2            =   9.7862019836410E-04
(PID.TID 0000.0001) %MON dynstat_vvel_max             =   2.1939401473398E-02
(PID.TID 0000.0001) %MON dynstat_vvel_min             =  -2.6254028668600E-03
(PID.TID 0000.0001) %MON dynstat_vvel_mean            =  -1.6529267744512E-06
(PID.TID 0000.0001) %MON dynstat_vvel_sd              =   2.9083952012363E-03
(PID.TID 0000.0001) %MON dynstat_vvel_del2            =   1.8511122877654E-03
(PID.TID 0000.0001) %MON dynstat_wvel_max             =   1.3689143234633E-05
(PID.TID 0000.0001) %MON dynstat_wvel_min             =  -1.3979908051479E-05
(PID.TID 0000.0001) %MON dynstat_wvel_mean            =  -7.9598976299167E-23
(PID.TID 0000.0001) %MON dynstat_wvel_sd              =   9.1618317658030E-06
(PID.TID 0000.0001) %MON dynstat_wvel_del2            =   5.0000366412747E-06
(PID.TID 0000.0001) %MON dynstat_theta_max            =   4.0000000000000E+00
(PID.TID 0000.0001) %MON dynstat_theta_min            =   4.0000000000000E+00
(PID.TID 0000.0001) %MON dynstat_theta_mean           =   4.0000000000000E+00
(PID.TID 0000.0001) %MON dynstat_theta_sd             =   0.0000000000000E+00
(PID.TID 0000.0001) %MON dynstat_theta_del2           =   0.0000000000000E+00
(PID.TID 0000.0001) %MON dynstat_salt_max             =   3.5000000000000E+01
(PID.TID 0000.0001) %MON dynstat_salt_min             =   3.5000000000000E+01
(PID.TID 0000.0001) %MON dynstat_salt_mean            =   3.5000000000000E+01
(PID.TID 0000.0001) %MON dynstat_salt_sd              =   0.0000000000000E+00
(PID.TID 0000.0001) %MON dynstat_salt_del2            =   0.0000000000000E+00
(PID.TID 0000.0001) %MON advcfl_uvel_max              =   1.4555260244714E-04
(PID.TID 0000.0001) %MON advcfl_vvel_max              =   3.9490922652117E-04
(PID.TID 0000.0001) %MON advcfl_wvel_max              =   4.4422790917826E-04
(PID.TID 0000.0001) %MON advcfl_W_hf_max              =   9.3019557234320E-04
(PID.TID 0000.0001) %MON pe_b_mean                    =   6.4736704701458E-09
(PID.TID 0000.0001) %MON ke_max                       =   1.4658317165303E-04
(PID.TID 0000.0001) %MON ke_mean                      =   4.7646506748541E-06
(PID.TID 0000.0001) %MON ke_vol                       =   3.5207326431489E+15
(PID.TID 0000.0001) %MON vort_r_min                   =  -6.8662998940391E-08
(PID.TID 0000.0001) %MON vort_r_max                   =   4.3723341327326E-08
(PID.TID 0000.0001) %MON vort_a_mean                  =  -1.1390240000000E-04
(PID.TID 0000.0001) %MON vort_a_sd                    =   3.6983707930737E-06
(PID.TID 0000.0001) %MON vort_p_mean                  =  -2.2184161870152E-04
(PID.TID 0000.0001) %MON vort_p_sd                    =   1.8699479809004E-04
(PID.TID 0000.0001) %MON surfExpan_theta_mean         =  -4.7862158680800E-22
(PID.TID 0000.0001) %MON surfExpan_salt_mean          =  -6.2448002324800E-21
(PID.TID 0000.0001) // =======================================================
(PID.TID 0000.0001) // End MONITOR dynamic field statistics
(PID.TID 0000.0001) // =======================================================
 cg2d: Sum(rhs),rhsMax =   6.86950496486816E-16  9.05405397431568E-02
(PID.TID 0000.0001)                    cg2d_init_res =    2.84443814186014E-02
(PID.TID 0000.0001)                       cg2d_iters =    17
(PID.TID 0000.0001)                         cg2d_res =    2.81642016040215E-15
(PID.TID 0000.0001) // =======================================================
(PID.TID 0000.0001) // Begin MONITOR dynamic field statistics
(PID.TID 0000.0001) // =======================================================
(PID.TID 0000.0001) %MON time_tsnumber                =                    72
(PID.TID 0000.0001) %MON time_secondsf                =   2.5920000000000E+05
(PID.TID 0000.0001) %MON dynstat_eta_max              =   4.3122637092612E-03
(PID.TID 0000.0001) %MON dynstat_eta_min              =  -4.7579100528462E-03
(PID.TID 0000.0001) %MON dynstat_eta_mean             =  -5.0184829888167E-18
(PID.TID 0000.0001) %MON dynstat_eta_sd               =   2.3782668658043E-03
(PID.TID 0000.0001) %MON dynstat_eta_del2             =   8.6833971682403E-04
(PID.TID 0000.0001) %MON dynstat_uvel_max             =   7.8432611684227E-03
(PID.TID 0000.0001) %MON dynstat_uvel_min             =  -3.1507204093663E-03
(PID.TID 0000.0001) %MON dynstat_uvel_mean            =   6.3442072594896E-04
(PID.TID 0000.0001) %MON dynstat_uvel_sd              =   1.6652815491219E-03
(PID.TID 0000.0001) %MON dynstat_uvel_del2            =   1.0013167352714E-03
(PID.TID 0000.0001) %MON dynstat_vvel_max             =   2.1735667287803E-02
(PID.TID 0000.0001) %MON dynstat_vvel_min             =  -2.6105283907516E-03
(PID.TID 0000.0001) %MON dynstat_vvel_mean            =  -1.5773891668768E-06
(PID.TID 0000.0001) %MON dynstat_vvel_sd              =   2.8764588756062E-03
(PID.TID 0000.0001) %MON dynstat_vvel_del2            =   1.8374036179552E-03
(PID.TID 0000.0001) %MON dynstat_wvel_max             =   1.3374628353935E-05
(PID.TID 0000.0001) %MON dynstat_wvel_min             =  -1.3737069195725E-05
(PID.TID 0000.0001) %MON dynstat_wvel_mean            =  -1.0581321216055E-22
(PID.TID 0000.0001) %MON dynstat_wvel_sd              =   8.9847984435673E-06
(PID.TID 0000.0001) %MON dynstat_wvel_del2            =   4.9232537182359E-06
(PID.TID 0000.0001) %MON dynstat_theta_max            =   4.0000000000000E+00
(PID.TID 0000.0001) %MON dynstat_theta_min            =   4.0000000000000E+00
(PID.TID 0000.0001) %MON dynstat_theta_mean           =   4.0000000000000E+00
(PID.TID 0000.0001) %MON dynstat_theta_sd             =   0.0000000000000E+00
(PID.TID 0000.0001) %MON dynstat_theta_del2           =   0.0000000000000E+00
(PID.TID 0000.0001) %MON dynstat_salt_max             =   3.5000000000000E+01
(PID.TID 0000.0001) %MON dynstat_salt_min             =   3.5000000000000E+01
(PID.TID 0000.0001) %MON dynstat_salt_mean            =   3.5000000000000E+01
(PID.TID 0000.0001) %MON dynstat_salt_sd              =   0.0000000000000E+00
(PID.TID 0000.0001) %MON dynstat_salt_del2            =   0.0000000000000E+00
(PID.TID 0000.0001) %MON advcfl_uvel_max              =   1.4117870103161E-04
(PID.TID 0000.0001) %MON advcfl_vvel_max              =   3.9124201118045E-04
(PID.TID 0000.0001) %MON advcfl_wvel_max              =   4.4215320975608E-04
(PID.TID 0000.0001) %MON advcfl_W_hf_max              =   9.1972273999619E-04
(PID.TID 0000.0001) %MON pe_b_mean                    =   6.3040133233239E-09
(PID.TID 0000.0001) %MON ke_max                       =   1.4271118644424E-04
(PID.TID 0000.0001) %MON ke_mean                      =   4.6905829543835E-06
(PID.TID 0000.0001) %MON ke_vol                       =   3.5207326431489E+15
(PID.TID 0000.0001) %MON vort_r_min                   =  -7.0462253996358E-08
(PID.TID 0000.0001) %MON vort_r_max                   =   4.5312105823039E-08
(PID.TID 0000.0001) %MON vort_a_mean                  =  -1.1390240000000E-04
(PID.TID 0000.0001) %MON vort_a_sd                    =   3.6983528745447E-06
(PID.TID 0000.0001) %MON vort_p_mean                  =  -2.2184161870152E-04
(PID.TID 0000.0001) %MON vort_p_sd                    =   1.8699480885981E-04
(PID.TID 0000.0001) %MON surfExpan_theta_mean         =   2.0008883439004E-22
(PID.TID 0000.0001) %MON surfExpan_salt_mean          =   2.2785329178987E-21
(PID.TID 0000.0001) // =======================================================
(PID.TID 0000.0001) // End MONITOR dynamic field statistics
(PID.TID 0000.0001) // =======================================================
 cg2d: Sum(rhs),rhsMax =   4.05925293378573E-16  9.03103701417029E-02
(PID.TID 0000.0001)                    cg2d_init_res =    2.86175042202184E-02
(PID.TID 0000.0001)                       cg2d_iters =    16
(PID.TID 0000.0001)                         cg2d_res =    6.62748615354332E-14
(PID.TID 0000.0001) // =======================================================
(PID.TID 0000.0001) // Begin MONITOR dynamic field statistics
(PID.TID 0000.0001) // =======================================================
(PID.TID 0000.0001) %MON time_tsnumber                =                    73
(PID.TID 0000.0001) %MON time_secondsf                =   2.6280000000000E+05
(PID.TID 0000.0001) %MON dynstat_eta_max              =   4.3070567680904E-03
(PID.TID 0000.0001) %MON dynstat_eta_min              =  -4.7611811886893E-03
(PID.TID 0000.0001) %MON dynstat_eta_mean             =  -5.2616996981669E-19
(PID.TID 0000.0001) %MON dynstat_eta_sd               =   2.3474129261588E-03
(PID.TID 0000.0001) %MON dynstat_eta_del2             =   8.5552922020079E-04
(PID.TID 0000.0001) %MON dynstat_uvel_max             =   7.6508017551947E-03
(PID.TID 0000.0001) %MON dynstat_uvel_min             =  -3.6507621756536E-03
(PID.TID 0000.0001) %MON dynstat_uvel_mean            =   6.0906527988098E-04
(PID.TID 0000.0001) %MON dynstat_uvel_sd              =   1.6747876168451E-03
(PID.TID 0000.0001) %MON dynstat_uvel_del2            =   1.0227068872875E-03
(PID.TID 0000.0001) %MON dynstat_vvel_max             =   2.1391662460606E-02
(PID.TID 0000.0001) %MON dynstat_vvel_min             =  -2.5856676724281E-03
(PID.TID 0000.0001) %MON dynstat_vvel_mean            =  -1.4981398473611E-06
(PID.TID 0000.0001) %MON dynstat_vvel_sd              =   2.8268131003425E-03
(PID.TID 0000.0001) %MON dynstat_vvel_del2            =   1.8294667869462E-03
(PID.TID 0000.0001) %MON dynstat_wvel_max             =   1.2921984063589E-05
(PID.TID 0000.0001) %MON dynstat_wvel_min             =  -1.3370018481743E-05
(PID.TID 0000.0001) %MON dynstat_wvel_mean            =  -1.1348415033094E-22
(PID.TID 0000.0001) %MON dynstat_wvel_sd              =   8.7470953343535E-06
(PID.TID 0000.0001) %MON dynstat_wvel_del2            =   4.8435221295049E-06
(PID.TID 0000.0001) %MON dynstat_theta_max            =   4.0000000000000E+00
(PID.TID 0000.0001) %MON dynstat_theta_min            =   4.0000000000000E+00
(PID.TID 0000.0001) %MON dynstat_theta_mean           =   4.0000000000000E+00
(PID.TID 0000.0001) %MON dynstat_theta_sd             =   0.0000000000000E+00
(PID.TID 0000.0001) %MON dynstat_theta_del2           =   0.0000000000000E+00
(PID.TID 0000.0001) %MON dynstat_salt_max             =   3.5000000000000E+01
(PID.TID 0000.0001) %MON dynstat_salt_min             =   3.5000000000000E+01
(PID.TID 0000.0001) %MON dynstat_salt_mean            =   3.5000000000000E+01
(PID.TID 0000.0001) %MON dynstat_salt_sd              =   0.0000000000000E+00
(PID.TID 0000.0001) %MON dynstat_salt_del2            =   0.0000000000000E+00
(PID.TID 0000.0001) %MON advcfl_uvel_max              =   1.3771443159350E-04
(PID.TID 0000.0001) %MON advcfl_vvel_max              =   3.8504992429091E-04
(PID.TID 0000.0001) %MON advcfl_wvel_max              =   4.3945244340727E-04
(PID.TID 0000.0001) %MON advcfl_W_hf_max              =   9.1124432481385E-04
(PID.TID 0000.0001) %MON pe_b_mean                    =   6.1415067741018E-09
(PID.TID 0000.0001) %MON ke_max                       =   1.3776472309909E-04
(PID.TID 0000.0001) %MON ke_mean                      =   4.5845149941061E-06
(PID.TID 0000.0001) %MON ke_vol                       =   3.5207326431489E+15
(PID.TID 0000.0001) %MON vort_r_min                   =  -7.1960621026563E-08
(PID.TID 0000.0001) %MON vort_r_max                   =   4.6616382247743E-08
(PID.TID 0000.0001) %MON vort_a_mean                  =  -1.1390240000000E-04
(PID.TID 0000.0001) %MON vort_a_sd                    =   3.6983359800496E-06
(PID.TID 0000.0001) %MON vort_p_mean                  =  -2.2184161870152E-04
(PID.TID 0000.0001) %MON vort_p_sd                    =   1.8699481681560E-04
(PID.TID 0000.0001) %MON surfExpan_theta_mean         =  -1.6541434888495E-22
(PID.TID 0000.0001) %MON surfExpan_salt_mean          =  -3.0033753262160E-23
(PID.TID 0000.0001) // =======================================================
(PID.TID 0000.0001) // End MONITOR dynamic field statistics
(PID.TID 0000.0001) // =======================================================
 cg2d: Sum(rhs),rhsMax =  -1.04083408558608E-17  8.99898242274081E-02
(PID.TID 0000.0001)                    cg2d_init_res =    2.88824057281548E-02
(PID.TID 0000.0001)                       cg2d_iters =    17
(PID.TID 0000.0001)                         cg2d_res =    4.99364714056199E-15
(PID.TID 0000.0001) // =======================================================
(PID.TID 0000.0001) // Begin MONITOR dynamic field statistics
(PID.TID 0000.0001) // =======================================================
(PID.TID 0000.0001) %MON time_tsnumber                =                    74
(PID.TID 0000.0001) %MON time_secondsf                =   2.6640000000000E+05
(PID.TID 0000.0001) %MON dynstat_eta_max              =   4.2954498288584E-03
(PID.TID 0000.0001) %MON dynstat_eta_min              =  -4.7578567417912E-03
(PID.TID 0000.0001) %MON dynstat_eta_mean             =   6.7984728957526E-22
(PID.TID 0000.0001) %MON dynstat_eta_sd               =   2.3172910707032E-03
(PID.TID 0000.0001) %MON dynstat_eta_del2             =   8.4242136579713E-04
(PID.TID 0000.0001) %MON dynstat_uvel_max             =   7.5338013872121E-03
(PID.TID 0000.0001) %MON dynstat_uvel_min             =  -3.9776809138886E-03
(PID.TID 0000.0001) %MON dynstat_uvel_mean            =   5.8492384339182E-04
(PID.TID 0000.0001) %MON dynstat_uvel_sd              =   1.6830216346783E-03
(PID.TID 0000.0001) %MON dynstat_uvel_del2            =   1.0386256968917E-03
(PID.TID 0000.0001) %MON dynstat_vvel_max             =   2.0954134000235E-02
(PID.TID 0000.0001) %MON dynstat_vvel_min             =  -2.5535464697792E-03
(PID.TID 0000.0001) %MON dynstat_vvel_mean            =  -1.4149518502355E-06
(PID.TID 0000.0001) %MON dynstat_vvel_sd              =   2.7669257554657E-03
(PID.TID 0000.0001) %MON dynstat_vvel_del2            =   1.8257053068788E-03
(PID.TID 0000.0001) %MON dynstat_wvel_max             =   1.2385725357973E-05
(PID.TID 0000.0001) %MON dynstat_wvel_min             =  -1.2922396545438E-05
(PID.TID 0000.0001) %MON dynstat_wvel_mean            =  -1.3032279509519E-22
(PID.TID 0000.0001) %MON dynstat_wvel_sd              =   8.4787449463850E-06
(PID.TID 0000.0001) %MON dynstat_wvel_del2            =   4.7635184842304E-06
(PID.TID 0000.0001) %MON dynstat_theta_max            =   4.0000000000000E+00
(PID.TID 0000.0001) %MON dynstat_theta_min            =   4.0000000000000E+00
(PID.TID 0000.0001) %MON dynstat_theta_mean           =   4.0000000000000E+00
(PID.TID 0000.0001) %MON dynstat_theta_sd             =   0.0000000000000E+00
(PID.TID 0000.0001) %MON dynstat_theta_del2           =   0.0000000000000E+00
(PID.TID 0000.0001) %MON dynstat_salt_max             =   3.5000000000000E+01
(PID.TID 0000.0001) %MON dynstat_salt_min             =   3.5000000000000E+01
(PID.TID 0000.0001) %MON dynstat_salt_mean            =   3.5000000000000E+01
(PID.TID 0000.0001) %MON dynstat_salt_sd              =   0.0000000000000E+00
(PID.TID 0000.0001) %MON dynstat_salt_del2            =   0.0000000000000E+00
(PID.TID 0000.0001) %MON advcfl_uvel_max              =   1.3560842496982E-04
(PID.TID 0000.0001) %MON advcfl_vvel_max              =   3.7717441200422E-04
(PID.TID 0000.0001) %MON advcfl_wvel_max              =   4.3607270804431E-04
(PID.TID 0000.0001) %MON advcfl_W_hf_max              =   9.0449345897080E-04
(PID.TID 0000.0001) %MON pe_b_mean                    =   5.9849031665502E-09
(PID.TID 0000.0001) %MON ke_max                       =   1.3243806591397E-04
(PID.TID 0000.0001) %MON ke_mean                      =   4.4583039145622E-06
(PID.TID 0000.0001) %MON ke_vol                       =   3.5207326431489E+15
(PID.TID 0000.0001) %MON vort_r_min                   =  -7.2972177679632E-08
(PID.TID 0000.0001) %MON vort_r_max                   =   4.7452889427771E-08
(PID.TID 0000.0001) %MON vort_a_mean                  =  -1.1390240000000E-04
(PID.TID 0000.0001) %MON vort_a_sd                    =   3.6983191795004E-06
(PID.TID 0000.0001) %MON vort_p_mean                  =  -2.2184161870152E-04
(PID.TID 0000.0001) %MON vort_p_sd                    =   1.8699482104611E-04
(PID.TID 0000.0001) %MON surfExpan_theta_mean         =  -1.5967316358001E-21
(PID.TID 0000.0001) %MON surfExpan_salt_mean          =  -1.1278775691181E-20
(PID.TID 0000.0001) // =======================================================
(PID.TID 0000.0001) // End MONITOR dynamic field statistics
(PID.TID 0000.0001) // =======================================================
 cg2d: Sum(rhs),rhsMax =   1.26634813746307E-16  8.96004120364414E-02
(PID.TID 0000.0001)                    cg2d_init_res =    2.91069871293024E-02
(PID.TID 0000.0001)                       cg2d_iters =    17
(PID.TID 0000.0001)                         cg2d_res =    5.41384382185169E-15
(PID.TID 0000.0001) // =======================================================
(PID.TID 0000.0001) // Begin MONITOR dynamic field statistics
(PID.TID 0000.0001) // =======================================================
(PID.TID 0000.0001) %MON time_tsnumber                =                    75
(PID.TID 0000.0001) %MON time_secondsf                =   2.7000000000000E+05
(PID.TID 0000.0001) %MON dynstat_eta_max              =   4.2783552939940E-03
(PID.TID 0000.0001) %MON dynstat_eta_min              =  -4.7487887455921E-03
(PID.TID 0000.0001) %MON dynstat_eta_mean             =  -9.5001887530088E-19
(PID.TID 0000.0001) %MON dynstat_eta_sd               =   2.2878226167921E-03
(PID.TID 0000.0001) %MON dynstat_eta_del2             =   8.2908657422094E-04
(PID.TID 0000.0001) %MON dynstat_uvel_max             =   7.5059975967038E-03
(PID.TID 0000.0001) %MON dynstat_uvel_min             =  -4.1004394474654E-03
(PID.TID 0000.0001) %MON dynstat_uvel_mean            =   5.6205491605739E-04
(PID.TID 0000.0001) %MON dynstat_uvel_sd              =   1.6875350124336E-03
(PID.TID 0000.0001) %MON dynstat_uvel_del2            =   1.0470049684433E-03
(PID.TID 0000.0001) %MON dynstat_vvel_max             =   2.0481977672960E-02
(PID.TID 0000.0001) %MON dynstat_vvel_min             =  -2.5177543649100E-03
(PID.TID 0000.0001) %MON dynstat_vvel_mean            =  -1.3277890594934E-06
(PID.TID 0000.0001) %MON dynstat_vvel_sd              =   2.7053150304027E-03
(PID.TID 0000.0001) %MON dynstat_vvel_del2            =   1.8240560742526E-03
(PID.TID 0000.0001) %MON dynstat_wvel_max             =   1.2299774135875E-05
(PID.TID 0000.0001) %MON dynstat_wvel_min             =  -1.2809698996031E-05
(PID.TID 0000.0001) %MON dynstat_wvel_mean            =  -2.3283064365387E-23
(PID.TID 0000.0001) %MON dynstat_wvel_sd              =   8.2142595578371E-06
(PID.TID 0000.0001) %MON dynstat_wvel_del2            =   4.6864749262519E-06
(PID.TID 0000.0001) %MON dynstat_theta_max            =   4.0000000000000E+00
(PID.TID 0000.0001) %MON dynstat_theta_min            =   4.0000000000000E+00
(PID.TID 0000.0001) %MON dynstat_theta_mean           =   4.0000000000000E+00
(PID.TID 0000.0001) %MON dynstat_theta_sd             =   0.0000000000000E+00
(PID.TID 0000.0001) %MON dynstat_theta_del2           =   0.0000000000000E+00
(PID.TID 0000.0001) %MON dynstat_salt_max             =   3.5000000000000E+01
(PID.TID 0000.0001) %MON dynstat_salt_min             =   3.5000000000000E+01
(PID.TID 0000.0001) %MON dynstat_salt_mean            =   3.5000000000000E+01
(PID.TID 0000.0001) %MON dynstat_salt_sd              =   0.0000000000000E+00
(PID.TID 0000.0001) %MON dynstat_salt_del2            =   0.0000000000000E+00
(PID.TID 0000.0001) %MON advcfl_uvel_max              =   1.3510795674067E-04
(PID.TID 0000.0001) %MON advcfl_vvel_max              =   3.6867559811328E-04
(PID.TID 0000.0001) %MON advcfl_wvel_max              =   4.3202984275015E-04
(PID.TID 0000.0001) %MON advcfl_W_hf_max              =   8.9899939954980E-04
(PID.TID 0000.0001) %MON pe_b_mean                    =   5.8336537671555E-09
(PID.TID 0000.0001) %MON ke_max                       =   1.2745680284591E-04
(PID.TID 0000.0001) %MON ke_mean                      =   4.3263642647067E-06
(PID.TID 0000.0001) %MON ke_vol                       =   3.5207326431489E+15
(PID.TID 0000.0001) %MON vort_r_min                   =  -7.3404084400689E-08
(PID.TID 0000.0001) %MON vort_r_max                   =   4.7730027931108E-08
(PID.TID 0000.0001) %MON vort_a_mean                  =  -1.1390240000000E-04
(PID.TID 0000.0001) %MON vort_a_sd                    =   3.6983020554187E-06
(PID.TID 0000.0001) %MON vort_p_mean                  =  -2.2184161870152E-04
(PID.TID 0000.0001) %MON vort_p_sd                    =   1.8699482146936E-04
(PID.TID 0000.0001) %MON surfExpan_theta_mean         =  -8.3616669144249E-22
(PID.TID 0000.0001) %MON surfExpan_salt_mean          =  -6.2165672609638E-21
(PID.TID 0000.0001) // =======================================================
(PID.TID 0000.0001) // End MONITOR dynamic field statistics
(PID.TID 0000.0001) // =======================================================
 cg2d: Sum(rhs),rhsMax =   1.84748050191530E-16  8.91643088347430E-02
(PID.TID 0000.0001)                    cg2d_init_res =    2.91693158924906E-02
(PID.TID 0000.0001)                       cg2d_iters =    17
(PID.TID 0000.0001)                         cg2d_res =    5.00164072012812E-15
(PID.TID 0000.0001) // =======================================================
(PID.TID 0000.0001) // Begin MONITOR dynamic field statistics
(PID.TID 0000.0001) // =======================================================
(PID.TID 0000.0001) %MON time_tsnumber                =                    76
(PID.TID 0000.0001) %MON time_secondsf                =   2.7360000000000E+05
(PID.TID 0000.0001) %MON dynstat_eta_max              =   4.2568374759275E-03
(PID.TID 0000.0001) %MON dynstat_eta_min              =  -4.7349363421496E-03
(PID.TID 0000.0001) %MON dynstat_eta_mean             =  -1.3095021131448E-18
(PID.TID 0000.0001) %MON dynstat_eta_sd               =   2.2590343131564E-03
(PID.TID 0000.0001) %MON dynstat_eta_del2             =   8.1667768695663E-04
(PID.TID 0000.0001) %MON dynstat_uvel_max             =   7.5682816135135E-03
(PID.TID 0000.0001) %MON dynstat_uvel_min             =  -4.0211876501522E-03
(PID.TID 0000.0001) %MON dynstat_uvel_mean            =   5.4053788715874E-04
(PID.TID 0000.0001) %MON dynstat_uvel_sd              =   1.6881566575568E-03
(PID.TID 0000.0001) %MON dynstat_uvel_del2            =   1.0480618049000E-03
(PID.TID 0000.0001) %MON dynstat_vvel_max             =   2.0036738606008E-02
(PID.TID 0000.0001) %MON dynstat_vvel_min             =  -2.6143781033637E-03
(PID.TID 0000.0001) %MON dynstat_vvel_mean            =  -1.2368560548284E-06
(PID.TID 0000.0001) %MON dynstat_vvel_sd              =   2.6494513201583E-03
(PID.TID 0000.0001) %MON dynstat_vvel_del2            =   1.8223674811023E-03
(PID.TID 0000.0001) %MON dynstat_wvel_max             =   1.2400506261560E-05
(PID.TID 0000.0001) %MON dynstat_wvel_min             =  -1.2837535785031E-05
(PID.TID 0000.0001) %MON dynstat_wvel_mean            =   2.3657256471259E-23
(PID.TID 0000.0001) %MON dynstat_wvel_sd              =   7.9835187025947E-06
(PID.TID 0000.0001) %MON dynstat_wvel_del2            =   4.6166148642400E-06
(PID.TID 0000.0001) %MON dynstat_theta_max            =   4.0000000000000E+00
(PID.TID 0000.0001) %MON dynstat_theta_min            =   4.0000000000000E+00
(PID.TID 0000.0001) %MON dynstat_theta_mean           =   4.0000000000000E+00
(PID.TID 0000.0001) %MON dynstat_theta_sd             =   0.0000000000000E+00
(PID.TID 0000.0001) %MON dynstat_theta_del2           =   0.0000000000000E+00
(PID.TID 0000.0001) %MON dynstat_salt_max             =   3.5000000000000E+01
(PID.TID 0000.0001) %MON dynstat_salt_min             =   3.5000000000000E+01
(PID.TID 0000.0001) %MON dynstat_salt_mean            =   3.5000000000000E+01
(PID.TID 0000.0001) %MON dynstat_salt_sd              =   0.0000000000000E+00
(PID.TID 0000.0001) %MON dynstat_salt_del2            =   0.0000000000000E+00
(PID.TID 0000.0001) %MON advcfl_uvel_max              =   1.3622906904324E-04
(PID.TID 0000.0001) %MON advcfl_vvel_max              =   3.6066129490814E-04
(PID.TID 0000.0001) %MON advcfl_wvel_max              =   4.2740664847857E-04
(PID.TID 0000.0001) %MON advcfl_W_hf_max              =   8.9418821811484E-04
(PID.TID 0000.0001) %MON pe_b_mean                    =   5.6877645091598E-09
(PID.TID 0000.0001) %MON ke_max                       =   1.2345762131600E-04
(PID.TID 0000.0001) %MON ke_mean                      =   4.2033747393417E-06
(PID.TID 0000.0001) %MON ke_vol                       =   3.5207326431489E+15
(PID.TID 0000.0001) %MON vort_r_min                   =  -7.3264739535393E-08
(PID.TID 0000.0001) %MON vort_r_max                   =   4.7455838361619E-08
(PID.TID 0000.0001) %MON vort_a_mean                  =  -1.1390240000000E-04
(PID.TID 0000.0001) %MON vort_a_sd                    =   3.6982847472000E-06
(PID.TID 0000.0001) %MON vort_p_mean                  =  -2.2184161870152E-04
(PID.TID 0000.0001) %MON vort_p_sd                    =   1.8699481885820E-04
(PID.TID 0000.0001) %MON surfExpan_theta_mean         =   1.0032863428933E-21
(PID.TID 0000.0001) %MON surfExpan_salt_mean          =   6.5046390496093E-21
(PID.TID 0000.0001) // =======================================================
(PID.TID 0000.0001) // End MONITOR dynamic field statistics
(PID.TID 0000.0001) // =======================================================
 cg2d: Sum(rhs),rhsMax =   1.21430643318376E-17  8.87012494829737E-02
(PID.TID 0000.0001)                    cg2d_init_res =    2.89815446979087E-02
(PID.TID 0000.0001)                       cg2d_iters =    17
(PID.TID 0000.0001)                         cg2d_res =    3.86586119379874E-15
(PID.TID 0000.0001) // =======================================================
(PID.TID 0000.0001) // Begin MONITOR dynamic field statistics
(PID.TID 0000.0001) // =======================================================
(PID.TID 0000.0001) %MON time_tsnumber                =                    77
(PID.TID 0000.0001) %MON time_secondsf                =   2.7720000000000E+05
(PID.TID 0000.0001) %MON dynstat_eta_max              =   4.2319653594617E-03
(PID.TID 0000.0001) %MON dynstat_eta_min              =  -4.7172322772899E-03
(PID.TID 0000.0001) %MON dynstat_eta_mean             =  -9.4335700850934E-20
(PID.TID 0000.0001) %MON dynstat_eta_sd               =   2.2310205581500E-03
(PID.TID 0000.0001) %MON dynstat_eta_del2             =   8.0464370630128E-04
(PID.TID 0000.0001) %MON dynstat_uvel_max             =   7.7090676362215E-03
(PID.TID 0000.0001) %MON dynstat_uvel_min             =  -3.7730776399997E-03
(PID.TID 0000.0001) %MON dynstat_uvel_mean            =   5.2046738236638E-04
(PID.TID 0000.0001) %MON dynstat_uvel_sd              =   1.6869374320079E-03
(PID.TID 0000.0001) %MON dynstat_uvel_del2            =   1.0436495629494E-03
(PID.TID 0000.0001) %MON dynstat_vvel_max             =   1.9673184643826E-02
(PID.TID 0000.0001) %MON dynstat_vvel_min             =  -2.7367053006588E-03
(PID.TID 0000.0001) %MON dynstat_vvel_mean            =  -1.1426083569470E-06
(PID.TID 0000.0001) %MON dynstat_vvel_sd              =   2.6044731283967E-03
(PID.TID 0000.0001) %MON dynstat_vvel_del2            =   1.8187654075101E-03
(PID.TID 0000.0001) %MON dynstat_wvel_max             =   1.2475482734999E-05
(PID.TID 0000.0001) %MON dynstat_wvel_min             =  -1.2877805180520E-05
(PID.TID 0000.0001) %MON dynstat_wvel_mean            =   7.6168881995337E-23
(PID.TID 0000.0001) %MON dynstat_wvel_sd              =   7.8059342804746E-06
(PID.TID 0000.0001) %MON dynstat_wvel_del2            =   4.5586885718740E-06
(PID.TID 0000.0001) %MON dynstat_theta_max            =   4.0000000000000E+00
(PID.TID 0000.0001) %MON dynstat_theta_min            =   4.0000000000000E+00
(PID.TID 0000.0001) %MON dynstat_theta_mean           =   4.0000000000000E+00
(PID.TID 0000.0001) %MON dynstat_theta_sd             =   0.0000000000000E+00
(PID.TID 0000.0001) %MON dynstat_theta_del2           =   0.0000000000000E+00
(PID.TID 0000.0001) %MON dynstat_salt_max             =   3.5000000000000E+01
(PID.TID 0000.0001) %MON dynstat_salt_min             =   3.5000000000000E+01
(PID.TID 0000.0001) %MON dynstat_salt_mean            =   3.5000000000000E+01
(PID.TID 0000.0001) %MON dynstat_salt_sd              =   0.0000000000000E+00
(PID.TID 0000.0001) %MON dynstat_salt_del2            =   0.0000000000000E+00
(PID.TID 0000.0001) %MON advcfl_uvel_max              =   1.3876321745199E-04
(PID.TID 0000.0001) %MON advcfl_vvel_max              =   3.5411732358886E-04
(PID.TID 0000.0001) %MON advcfl_wvel_max              =   4.2234077177728E-04
(PID.TID 0000.0001) %MON advcfl_W_hf_max              =   8.8948971996912E-04
(PID.TID 0000.0001) %MON pe_b_mean                    =   5.5475738988622E-09
(PID.TID 0000.0001) %MON ke_max                       =   1.2089576225582E-04
(PID.TID 0000.0001) %MON ke_mean                      =   4.1020526910938E-06
(PID.TID 0000.0001) %MON ke_vol                       =   3.5207326431489E+15
(PID.TID 0000.0001) %MON vort_r_min                   =  -7.2655823689499E-08
(PID.TID 0000.0001) %MON vort_r_max                   =   4.6730079445413E-08
(PID.TID 0000.0001) %MON vort_a_mean                  =  -1.1390240000000E-04
(PID.TID 0000.0001) %MON vort_a_sd                    =   3.6982679012578E-06
(PID.TID 0000.0001) %MON vort_p_mean                  =  -2.2184161870152E-04
(PID.TID 0000.0001) %MON vort_p_sd                    =   1.8699481472958E-04
(PID.TID 0000.0001) %MON surfExpan_theta_mean         =   3.5697667044587E-22
(PID.TID 0000.0001) %MON surfExpan_salt_mean          =   7.7229778128185E-21
(PID.TID 0000.0001) // =======================================================
(PID.TID 0000.0001) // End MONITOR dynamic field statistics
(PID.TID 0000.0001) // =======================================================
 cg2d: Sum(rhs),rhsMax =  -9.02056207507940E-17  8.82259316756417E-02
(PID.TID 0000.0001)                    cg2d_init_res =    2.85072842332200E-02
(PID.TID 0000.0001)                       cg2d_iters =    17
(PID.TID 0000.0001)                         cg2d_res =    2.22216726434300E-15
(PID.TID 0000.0001) // =======================================================
(PID.TID 0000.0001) // Begin MONITOR dynamic field statistics
(PID.TID 0000.0001) // =======================================================
(PID.TID 0000.0001) %MON time_tsnumber                =                    78
(PID.TID 0000.0001) %MON time_secondsf                =   2.8080000000000E+05
(PID.TID 0000.0001) %MON dynstat_eta_max              =   4.2046698377145E-03
(PID.TID 0000.0001) %MON dynstat_eta_min              =  -4.6964598904002E-03
(PID.TID 0000.0001) %MON dynstat_eta_mean             =   7.1963295340538E-19
(PID.TID 0000.0001) %MON dynstat_eta_sd               =   2.2038947479949E-03
(PID.TID 0000.0001) %MON dynstat_eta_del2             =   7.9394890301727E-04
(PID.TID 0000.0001) %MON dynstat_uvel_max             =   7.9065336803087E-03
(PID.TID 0000.0001) %MON dynstat_uvel_min             =  -3.4134278017058E-03
(PID.TID 0000.0001) %MON dynstat_uvel_mean            =   5.0194452534955E-04
(PID.TID 0000.0001) %MON dynstat_uvel_sd              =   1.6867821095025E-03
(PID.TID 0000.0001) %MON dynstat_uvel_del2            =   1.0368752724718E-03
(PID.TID 0000.0001) %MON dynstat_vvel_max             =   1.9431393310647E-02
(PID.TID 0000.0001) %MON dynstat_vvel_min             =  -2.8073623949100E-03
(PID.TID 0000.0001) %MON dynstat_vvel_mean            =  -1.0457230306723E-06
(PID.TID 0000.0001) %MON dynstat_vvel_sd              =   2.5730567303485E-03
(PID.TID 0000.0001) %MON dynstat_vvel_del2            =   1.8119513304545E-03
(PID.TID 0000.0001) %MON dynstat_wvel_max             =   1.2493743517716E-05
(PID.TID 0000.0001) %MON dynstat_wvel_min             =  -1.2905573834437E-05
(PID.TID 0000.0001) %MON dynstat_wvel_mean            =  -7.5108671028699E-23
(PID.TID 0000.0001) %MON dynstat_wvel_sd              =   7.6900855304478E-06
(PID.TID 0000.0001) %MON dynstat_wvel_del2            =   4.5140798823981E-06
(PID.TID 0000.0001) %MON dynstat_theta_max            =   4.0000000000000E+00
(PID.TID 0000.0001) %MON dynstat_theta_min            =   4.0000000000000E+00
(PID.TID 0000.0001) %MON dynstat_theta_mean           =   4.0000000000000E+00
(PID.TID 0000.0001) %MON dynstat_theta_sd             =   0.0000000000000E+00
(PID.TID 0000.0001) %MON dynstat_theta_del2           =   0.0000000000000E+00
(PID.TID 0000.0001) %MON dynstat_salt_max             =   3.5000000000000E+01
(PID.TID 0000.0001) %MON dynstat_salt_min             =   3.5000000000000E+01
(PID.TID 0000.0001) %MON dynstat_salt_mean            =   3.5000000000000E+01
(PID.TID 0000.0001) %MON dynstat_salt_sd              =   0.0000000000000E+00
(PID.TID 0000.0001) %MON dynstat_salt_del2            =   0.0000000000000E+00
(PID.TID 0000.0001) %MON advcfl_uvel_max              =   1.4231760624556E-04
(PID.TID 0000.0001) %MON advcfl_vvel_max              =   3.4976507959165E-04
(PID.TID 0000.0001) %MON advcfl_wvel_max              =   4.1700442506169E-04
(PID.TID 0000.0001) %MON advcfl_W_hf_max              =   8.8443400609779E-04
(PID.TID 0000.0001) %MON pe_b_mean                    =   5.4134938991938E-09
(PID.TID 0000.0001) %MON ke_max                       =   1.1999192785215E-04
(PID.TID 0000.0001) %MON ke_mean                      =   4.0313243574061E-06
(PID.TID 0000.0001) %MON ke_vol                       =   3.5207326431489E+15
(PID.TID 0000.0001) %MON vort_r_min                   =  -7.1750317111098E-08
(PID.TID 0000.0001) %MON vort_r_max                   =   4.5722498045574E-08
(PID.TID 0000.0001) %MON vort_a_mean                  =  -1.1390240000000E-04
(PID.TID 0000.0001) %MON vort_a_sd                    =   3.6982525376491E-06
(PID.TID 0000.0001) %MON vort_p_mean                  =  -2.2184161870152E-04
(PID.TID 0000.0001) %MON vort_p_sd                    =   1.8699481111557E-04
(PID.TID 0000.0001) %MON surfExpan_theta_mean         =  -3.5811353882309E-22
(PID.TID 0000.0001) %MON surfExpan_salt_mean          =  -5.7460836089263E-21
(PID.TID 0000.0001) // =======================================================
(PID.TID 0000.0001) // End MONITOR dynamic field statistics
(PID.TID 0000.0001) // =======================================================
 cg2d: Sum(rhs),rhsMax =  -5.89805981832114E-17  8.77463159036157E-02
(PID.TID 0000.0001)                    cg2d_init_res =    2.77692341519958E-02
(PID.TID 0000.0001)                       cg2d_iters =    17
(PID.TID 0000.0001)                         cg2d_res =    4.92823133826894E-16
(PID.TID 0000.0001) // =======================================================
(PID.TID 0000.0001) // Begin MONITOR dynamic field statistics
(PID.TID 0000.0001) // =======================================================
(PID.TID 0000.0001) %MON time_tsnumber                =                    79
(PID.TID 0000.0001) %MON time_secondsf                =   2.8440000000000E+05
(PID.TID 0000.0001) %MON dynstat_eta_max              =   4.1756275350458E-03
(PID.TID 0000.0001) %MON dynstat_eta_min              =  -4.6731593063465E-03
(PID.TID 0000.0001) %MON dynstat_eta_mean             =   4.4043117668480E-19
(PID.TID 0000.0001) %MON dynstat_eta_sd               =   2.1777390867214E-03
(PID.TID 0000.0001) %MON dynstat_eta_del2             =   7.8381337823490E-04
(PID.TID 0000.0001) %MON dynstat_uvel_max             =   8.1322975816577E-03
(PID.TID 0000.0001) %MON dynstat_uvel_min             =  -3.0135275165695E-03
(PID.TID 0000.0001) %MON dynstat_uvel_mean            =   4.8506656222815E-04
(PID.TID 0000.0001) %MON dynstat_uvel_sd              =   1.6896224585585E-03
(PID.TID 0000.0001) %MON dynstat_uvel_del2            =   1.0292079043117E-03
(PID.TID 0000.0001) %MON dynstat_vvel_max             =   1.9331486343088E-02
(PID.TID 0000.0001) %MON dynstat_vvel_min             =  -2.8167304066849E-03
(PID.TID 0000.0001) %MON dynstat_vvel_mean            =  -9.4703580361351E-07
(PID.TID 0000.0001) %MON dynstat_vvel_sd              =   2.5560864219650E-03
(PID.TID 0000.0001) %MON dynstat_vvel_del2            =   1.8013901830640E-03
(PID.TID 0000.0001) %MON dynstat_wvel_max             =   1.2435909635163E-05
(PID.TID 0000.0001) %MON dynstat_wvel_min             =  -1.2900821375865E-05
(PID.TID 0000.0001) %MON dynstat_wvel_mean            =  -4.5568283115114E-23
(PID.TID 0000.0001) %MON dynstat_wvel_sd              =   7.6375049682259E-06
(PID.TID 0000.0001) %MON dynstat_wvel_del2            =   4.4810085195994E-06
(PID.TID 0000.0001) %MON dynstat_theta_max            =   4.0000000000000E+00
(PID.TID 0000.0001) %MON dynstat_theta_min            =   4.0000000000000E+00
(PID.TID 0000.0001) %MON dynstat_theta_mean           =   4.0000000000000E+00
(PID.TID 0000.0001) %MON dynstat_theta_sd             =   0.0000000000000E+00
(PID.TID 0000.0001) %MON dynstat_theta_del2           =   0.0000000000000E+00
(PID.TID 0000.0001) %MON dynstat_salt_max             =   3.5000000000000E+01
(PID.TID 0000.0001) %MON dynstat_salt_min             =   3.5000000000000E+01
(PID.TID 0000.0001) %MON dynstat_salt_mean            =   3.5000000000000E+01
(PID.TID 0000.0001) %MON dynstat_salt_sd              =   0.0000000000000E+00
(PID.TID 0000.0001) %MON dynstat_salt_del2            =   0.0000000000000E+00
(PID.TID 0000.0001) %MON advcfl_uvel_max              =   1.4638135646984E-04
(PID.TID 0000.0001) %MON advcfl_vvel_max              =   3.4796675417558E-04
(PID.TID 0000.0001) %MON advcfl_wvel_max              =   4.1157931343848E-04
(PID.TID 0000.0001) %MON advcfl_W_hf_max              =   8.7872372418223E-04
(PID.TID 0000.0001) %MON pe_b_mean                    =   5.2857624799435E-09
(PID.TID 0000.0001) %MON ke_max                       =   1.2071983786697E-04
(PID.TID 0000.0001) %MON ke_mean                      =   3.9951488211650E-06
(PID.TID 0000.0001) %MON ke_vol                       =   3.5207326431489E+15
(PID.TID 0000.0001) %MON vort_r_min                   =  -7.0760616723896E-08
(PID.TID 0000.0001) %MON vort_r_max                   =   4.4641375414143E-08
(PID.TID 0000.0001) %MON vort_a_mean                  =  -1.1390240000000E-04
(PID.TID 0000.0001) %MON vort_a_sd                    =   3.6982398584502E-06
(PID.TID 0000.0001) %MON vort_p_mean                  =  -2.2184161870152E-04
(PID.TID 0000.0001) %MON vort_p_sd                    =   1.8699481025290E-04
(PID.TID 0000.0001) %MON surfExpan_theta_mean         =  -2.7057467377745E-22
(PID.TID 0000.0001) %MON surfExpan_salt_mean          =  -3.5463587622075E-21
(PID.TID 0000.0001) // =======================================================
(PID.TID 0000.0001) // End MONITOR dynamic field statistics
(PID.TID 0000.0001) // =======================================================
 cg2d: Sum(rhs),rhsMax =  -1.80411241501588E-16  8.72630547578718E-02
(PID.TID 0000.0001)                    cg2d_init_res =    2.68455403233844E-02
(PID.TID 0000.0001)                       cg2d_iters =    17
(PID.TID 0000.0001)                         cg2d_res =    1.96402154855635E-15
(PID.TID 0000.0001) // =======================================================
(PID.TID 0000.0001) // Begin MONITOR dynamic field statistics
(PID.TID 0000.0001) // =======================================================
(PID.TID 0000.0001) %MON time_tsnumber                =                    80
(PID.TID 0000.0001) %MON time_secondsf                =   2.8800000000000E+05
(PID.TID 0000.0001) %MON dynstat_eta_max              =   4.1451887662075E-03
(PID.TID 0000.0001) %MON dynstat_eta_min              =  -4.6475762549892E-03
(PID.TID 0000.0001) %MON dynstat_eta_mean             =   1.2224132660776E-18
(PID.TID 0000.0001) %MON dynstat_eta_sd               =   2.1525626262407E-03
(PID.TID 0000.0001) %MON dynstat_eta_del2             =   7.7383722445083E-04
(PID.TID 0000.0001) %MON dynstat_uvel_max             =   8.3558945785123E-03
(PID.TID 0000.0001) %MON dynstat_uvel_min             =  -2.6468234919326E-03
(PID.TID 0000.0001) %MON dynstat_uvel_mean            =   4.6991651225435E-04
(PID.TID 0000.0001) %MON dynstat_uvel_sd              =   1.6952414632238E-03
(PID.TID 0000.0001) %MON dynstat_uvel_del2            =   1.0225852896829E-03
(PID.TID 0000.0001) %MON dynstat_vvel_max             =   1.9371680434198E-02
(PID.TID 0000.0001) %MON dynstat_vvel_min             =  -2.7644858190524E-03
(PID.TID 0000.0001) %MON dynstat_vvel_mean            =  -8.4745558961940E-07
(PID.TID 0000.0001) %MON dynstat_vvel_sd              =   2.5533332114481E-03
(PID.TID 0000.0001) %MON dynstat_vvel_del2            =   1.7873648055667E-03
(PID.TID 0000.0001) %MON dynstat_wvel_max             =   1.2297185111264E-05
(PID.TID 0000.0001) %MON dynstat_wvel_min             =  -1.2851478839196E-05
(PID.TID 0000.0001) %MON dynstat_wvel_mean            =  -5.4548893656049E-23
(PID.TID 0000.0001) %MON dynstat_wvel_sd              =   7.6465550896728E-06
(PID.TID 0000.0001) %MON dynstat_wvel_del2            =   4.4601422700170E-06
(PID.TID 0000.0001) %MON dynstat_theta_max            =   4.0000000000000E+00
(PID.TID 0000.0001) %MON dynstat_theta_min            =   4.0000000000000E+00
(PID.TID 0000.0001) %MON dynstat_theta_mean           =   4.0000000000000E+00
(PID.TID 0000.0001) %MON dynstat_theta_sd             =   0.0000000000000E+00
(PID.TID 0000.0001) %MON dynstat_theta_del2           =   0.0000000000000E+00
(PID.TID 0000.0001) %MON dynstat_salt_max             =   3.5000000000000E+01
(PID.TID 0000.0001) %MON dynstat_salt_min             =   3.5000000000000E+01
(PID.TID 0000.0001) %MON dynstat_salt_mean            =   3.5000000000000E+01
(PID.TID 0000.0001) %MON dynstat_salt_sd              =   0.0000000000000E+00
(PID.TID 0000.0001) %MON dynstat_salt_del2            =   0.0000000000000E+00
(PID.TID 0000.0001) %MON advcfl_uvel_max              =   1.5040610241322E-04
(PID.TID 0000.0001) %MON advcfl_vvel_max              =   3.4869024781556E-04
(PID.TID 0000.0001) %MON advcfl_wvel_max              =   4.0623078307309E-04
(PID.TID 0000.0001) %MON advcfl_W_hf_max              =   8.7227267682660E-04
(PID.TID 0000.0001) %MON pe_b_mean                    =   5.1642533861759E-09
(PID.TID 0000.0001) %MON ke_max                       =   1.2282865063224E-04
(PID.TID 0000.0001) %MON ke_mean                      =   3.9921492761356E-06
(PID.TID 0000.0001) %MON ke_vol                       =   3.5207326431489E+15
(PID.TID 0000.0001) %MON vort_r_min                   =  -6.9902186860645E-08
(PID.TID 0000.0001) %MON vort_r_max                   =   4.3697716904016E-08
(PID.TID 0000.0001) %MON vort_a_mean                  =  -1.1390240000000E-04
(PID.TID 0000.0001) %MON vort_a_sd                    =   3.6982310320809E-06
(PID.TID 0000.0001) %MON vort_p_mean                  =  -2.2184161870152E-04
(PID.TID 0000.0001) %MON vort_p_sd                    =   1.8699481424011E-04
(PID.TID 0000.0001) %MON surfExpan_theta_mean         =  -1.2539658200694E-21
(PID.TID 0000.0001) %MON surfExpan_salt_mean          =  -9.8107277857196E-21
(PID.TID 0000.0001) // =======================================================
(PID.TID 0000.0001) // End MONITOR dynamic field statistics
(PID.TID 0000.0001) // =======================================================
 cg2d: Sum(rhs),rhsMax =  -2.91433543964104E-16  8.67700998922807E-02
(PID.TID 0000.0001)                    cg2d_init_res =    2.58549102394565E-02
(PID.TID 0000.0001)                       cg2d_iters =    17
(PID.TID 0000.0001)                         cg2d_res =    1.96286465944419E-15
(PID.TID 0000.0001) // =======================================================
(PID.TID 0000.0001) // Begin MONITOR dynamic field statistics
(PID.TID 0000.0001) // =======================================================
(PID.TID 0000.0001) %MON time_tsnumber                =                    81
(PID.TID 0000.0001) %MON time_secondsf                =   2.9160000000000E+05
(PID.TID 0000.0001) %MON dynstat_eta_max              =   4.1133597882789E-03
(PID.TID 0000.0001) %MON dynstat_eta_min              =  -4.6196598739804E-03
(PID.TID 0000.0001) %MON dynstat_eta_mean             =   2.1725150872953E-18
(PID.TID 0000.0001) %MON dynstat_eta_sd               =   2.1282753617078E-03
(PID.TID 0000.0001) %MON dynstat_eta_del2             =   7.6398726169454E-04
(PID.TID 0000.0001) %MON dynstat_uvel_max             =   8.5493334826104E-03
(PID.TID 0000.0001) %MON dynstat_uvel_min             =  -2.3773872597475E-03
(PID.TID 0000.0001) %MON dynstat_uvel_mean            =   4.5655445787926E-04
(PID.TID 0000.0001) %MON dynstat_uvel_sd              =   1.7014464932443E-03
(PID.TID 0000.0001) %MON dynstat_uvel_del2            =   1.0189702039018E-03
(PID.TID 0000.0001) %MON dynstat_vvel_max             =   1.9529779343498E-02
(PID.TID 0000.0001) %MON dynstat_vvel_min             =  -2.6594098942302E-03
(PID.TID 0000.0001) %MON dynstat_vvel_mean            =  -7.4787008009504E-07
(PID.TID 0000.0001) %MON dynstat_vvel_sd              =   2.5635379095542E-03
(PID.TID 0000.0001) %MON dynstat_vvel_del2            =   1.7708955983325E-03
(PID.TID 0000.0001) %MON dynstat_wvel_max             =   1.2087928458220E-05
(PID.TID 0000.0001) %MON dynstat_wvel_min             =  -1.2755050928699E-05
(PID.TID 0000.0001) %MON dynstat_wvel_mean            =   7.7811169571110E-23
(PID.TID 0000.0001) %MON dynstat_wvel_sd              =   7.7129522579043E-06
(PID.TID 0000.0001) %MON dynstat_wvel_del2            =   4.4533869464100E-06
(PID.TID 0000.0001) %MON dynstat_theta_max            =   4.0000000000000E+00
(PID.TID 0000.0001) %MON dynstat_theta_min            =   4.0000000000000E+00
(PID.TID 0000.0001) %MON dynstat_theta_mean           =   4.0000000000000E+00
(PID.TID 0000.0001) %MON dynstat_theta_sd             =   0.0000000000000E+00
(PID.TID 0000.0001) %MON dynstat_theta_del2           =   0.0000000000000E+00
(PID.TID 0000.0001) %MON dynstat_salt_max             =   3.5000000000000E+01
(PID.TID 0000.0001) %MON dynstat_salt_min             =   3.5000000000000E+01
(PID.TID 0000.0001) %MON dynstat_salt_mean            =   3.5000000000000E+01
(PID.TID 0000.0001) %MON dynstat_salt_sd              =   0.0000000000000E+00
(PID.TID 0000.0001) %MON dynstat_salt_del2            =   0.0000000000000E+00
(PID.TID 0000.0001) %MON advcfl_uvel_max              =   1.5388800268699E-04
(PID.TID 0000.0001) %MON advcfl_vvel_max              =   3.5153602818297E-04
(PID.TID 0000.0001) %MON advcfl_wvel_max              =   4.0108521796960E-04
(PID.TID 0000.0001) %MON advcfl_W_hf_max              =   8.6520720770459E-04
(PID.TID 0000.0001) %MON pe_b_mean                    =   5.0483747575772E-09
(PID.TID 0000.0001) %MON ke_max                       =   1.2589204143158E-04
(PID.TID 0000.0001) %MON ke_mean                      =   4.0160787610780E-06
(PID.TID 0000.0001) %MON ke_vol                       =   3.5207326431489E+15
(PID.TID 0000.0001) %MON vort_r_min                   =  -6.9358587045080E-08
(PID.TID 0000.0001) %MON vort_r_max                   =   4.3070846838127E-08
(PID.TID 0000.0001) %MON vort_a_mean                  =  -1.1390240000000E-04
(PID.TID 0000.0001) %MON vort_a_sd                    =   3.6982269895843E-06
(PID.TID 0000.0001) %MON vort_p_mean                  =  -2.2184161870152E-04
(PID.TID 0000.0001) %MON vort_p_sd                    =   1.8699482471584E-04
(PID.TID 0000.0001) %MON surfExpan_theta_mean         =   5.0590642786119E-22
(PID.TID 0000.0001) %MON surfExpan_salt_mean          =   5.0485648994680E-21
(PID.TID 0000.0001) // =======================================================
(PID.TID 0000.0001) // End MONITOR dynamic field statistics
(PID.TID 0000.0001) // =======================================================
 cg2d: Sum(rhs),rhsMax =  -5.48172618408671E-16  8.62563513524465E-02
(PID.TID 0000.0001)                    cg2d_init_res =    2.49323331052708E-02
(PID.TID 0000.0001)                       cg2d_iters =    17
(PID.TID 0000.0001)                         cg2d_res =    2.41005940063403E-15
(PID.TID 0000.0001) // =======================================================
(PID.TID 0000.0001) // Begin MONITOR dynamic field statistics
(PID.TID 0000.0001) // =======================================================
(PID.TID 0000.0001) %MON time_tsnumber                =                    82
(PID.TID 0000.0001) %MON time_secondsf                =   2.9520000000000E+05
(PID.TID 0000.0001) %MON dynstat_eta_max              =   4.0798405458171E-03
(PID.TID 0000.0001) %MON dynstat_eta_min              =  -4.5891081418790E-03
(PID.TID 0000.0001) %MON dynstat_eta_mean             =   4.0142389480025E-18
(PID.TID 0000.0001) %MON dynstat_eta_sd               =   2.1046824127892E-03
(PID.TID 0000.0001) %MON dynstat_eta_del2             =   7.5421952646552E-04
(PID.TID 0000.0001) %MON dynstat_uvel_max             =   8.6910345329871E-03
(PID.TID 0000.0001) %MON dynstat_uvel_min             =  -2.2504227009071E-03
(PID.TID 0000.0001) %MON dynstat_uvel_mean            =   4.4501178699908E-04
(PID.TID 0000.0001) %MON dynstat_uvel_sd              =   1.7054023203392E-03
(PID.TID 0000.0001) %MON dynstat_uvel_del2            =   1.0197013667544E-03
(PID.TID 0000.0001) %MON dynstat_vvel_max             =   1.9767698705392E-02
(PID.TID 0000.0001) %MON dynstat_vvel_min             =  -2.5177814547972E-03
(PID.TID 0000.0001) %MON dynstat_vvel_mean            =  -6.4905677177366E-07
(PID.TID 0000.0001) %MON dynstat_vvel_sd              =   2.5839507242196E-03
(PID.TID 0000.0001) %MON dynstat_vvel_del2            =   1.7535448512359E-03
(PID.TID 0000.0001) %MON dynstat_wvel_max             =   1.1831763998508E-05
(PID.TID 0000.0001) %MON dynstat_wvel_min             =  -1.2618628826227E-05
(PID.TID 0000.0001) %MON dynstat_wvel_mean            =  -8.1074956272330E-23
(PID.TID 0000.0001) %MON dynstat_wvel_sd              =   7.8269989978568E-06
(PID.TID 0000.0001) %MON dynstat_wvel_del2            =   4.4596887795688E-06
(PID.TID 0000.0001) %MON dynstat_theta_max            =   4.0000000000000E+00
(PID.TID 0000.0001) %MON dynstat_theta_min            =   4.0000000000000E+00
(PID.TID 0000.0001) %MON dynstat_theta_mean           =   4.0000000000000E+00
(PID.TID 0000.0001) %MON dynstat_theta_sd             =   0.0000000000000E+00
(PID.TID 0000.0001) %MON dynstat_theta_del2           =   0.0000000000000E+00
(PID.TID 0000.0001) %MON dynstat_salt_max             =   3.5000000000000E+01
(PID.TID 0000.0001) %MON dynstat_salt_min             =   3.5000000000000E+01
(PID.TID 0000.0001) %MON dynstat_salt_mean            =   3.5000000000000E+01
(PID.TID 0000.0001) %MON dynstat_salt_sd              =   0.0000000000000E+00
(PID.TID 0000.0001) %MON dynstat_salt_del2            =   0.0000000000000E+00
(PID.TID 0000.0001) %MON advcfl_uvel_max              =   1.5643862159377E-04
(PID.TID 0000.0001) %MON advcfl_vvel_max              =   3.5581857669705E-04
(PID.TID 0000.0001) %MON advcfl_wvel_max              =   3.9621410376512E-04
(PID.TID 0000.0001) %MON advcfl_W_hf_max              =   8.5783269691806E-04
(PID.TID 0000.0001) %MON pe_b_mean                    =   4.9370678504032E-09
(PID.TID 0000.0001) %MON ke_max                       =   1.2937613184528E-04
(PID.TID 0000.0001) %MON ke_mean                      =   4.0570169448194E-06
(PID.TID 0000.0001) %MON ke_vol                       =   3.5207326431489E+15
(PID.TID 0000.0001) %MON vort_r_min                   =  -6.9253214147809E-08
(PID.TID 0000.0001) %MON vort_r_max                   =   4.3455172664935E-08
(PID.TID 0000.0001) %MON vort_a_mean                  =  -1.1390240000000E-04
(PID.TID 0000.0001) %MON vort_a_sd                    =   3.6982282642348E-06
(PID.TID 0000.0001) %MON vort_p_mean                  =  -2.2184161870152E-04
(PID.TID 0000.0001) %MON vort_p_sd                    =   1.8699484260752E-04
(PID.TID 0000.0001) %MON surfExpan_theta_mean         =   7.4464878707659E-23
(PID.TID 0000.0001) %MON surfExpan_salt_mean          =  -1.7503176685807E-21
(PID.TID 0000.0001) // =======================================================
(PID.TID 0000.0001) // End MONITOR dynamic field statistics
(PID.TID 0000.0001) // =======================================================
 cg2d: Sum(rhs),rhsMax =  -3.92047505570758E-16  8.57080582095699E-02
(PID.TID 0000.0001)                    cg2d_init_res =    2.41998028837504E-02
(PID.TID 0000.0001)                       cg2d_iters =    17
(PID.TID 0000.0001)                         cg2d_res =    4.92595309001173E-15
(PID.TID 0000.0001) // =======================================================
(PID.TID 0000.0001) // Begin MONITOR dynamic field statistics
(PID.TID 0000.0001) // =======================================================
(PID.TID 0000.0001) %MON time_tsnumber                =                    83
(PID.TID 0000.0001) %MON time_secondsf                =   2.9880000000000E+05
(PID.TID 0000.0001) %MON dynstat_eta_max              =   4.0441101736766E-03
(PID.TID 0000.0001) %MON dynstat_eta_min              =  -4.5554523724967E-03
(PID.TID 0000.0001) %MON dynstat_eta_mean             =   2.6589957997203E-18
(PID.TID 0000.0001) %MON dynstat_eta_sd               =   2.0814979272415E-03
(PID.TID 0000.0001) %MON dynstat_eta_del2             =   7.4449115902672E-04
(PID.TID 0000.0001) %MON dynstat_uvel_max             =   8.7685830887312E-03
(PID.TID 0000.0001) %MON dynstat_uvel_min             =  -2.2861697179382E-03
(PID.TID 0000.0001) %MON dynstat_uvel_mean            =   4.3528920385886E-04
(PID.TID 0000.0001) %MON dynstat_uvel_sd              =   1.7052338563137E-03
(PID.TID 0000.0001) %MON dynstat_uvel_del2            =   1.0255209014946E-03
(PID.TID 0000.0001) %MON dynstat_vvel_max             =   2.0038171906898E-02
(PID.TID 0000.0001) %MON dynstat_vvel_min             =  -2.4052868048964E-03
(PID.TID 0000.0001) %MON dynstat_vvel_mean            =  -5.5161255546483E-07
(PID.TID 0000.0001) %MON dynstat_vvel_sd              =   2.6099458286527E-03
(PID.TID 0000.0001) %MON dynstat_vvel_del2            =   1.7371420382319E-03
(PID.TID 0000.0001) %MON dynstat_wvel_max             =   1.1561590618496E-05
(PID.TID 0000.0001) %MON dynstat_wvel_min             =  -1.2457355813858E-05
(PID.TID 0000.0001) %MON dynstat_wvel_mean            =  -1.1982462768044E-22
(PID.TID 0000.0001) %MON dynstat_wvel_sd              =   7.9708356099433E-06
(PID.TID 0000.0001) %MON dynstat_wvel_del2            =   4.4762187889564E-06
(PID.TID 0000.0001) %MON dynstat_theta_max            =   4.0000000000000E+00
(PID.TID 0000.0001) %MON dynstat_theta_min            =   4.0000000000000E+00
(PID.TID 0000.0001) %MON dynstat_theta_mean           =   4.0000000000000E+00
(PID.TID 0000.0001) %MON dynstat_theta_sd             =   0.0000000000000E+00
(PID.TID 0000.0001) %MON dynstat_theta_del2           =   0.0000000000000E+00
(PID.TID 0000.0001) %MON dynstat_salt_max             =   3.5000000000000E+01
(PID.TID 0000.0001) %MON dynstat_salt_min             =   3.5000000000000E+01
(PID.TID 0000.0001) %MON dynstat_salt_mean            =   3.5000000000000E+01
(PID.TID 0000.0001) %MON dynstat_salt_sd              =   0.0000000000000E+00
(PID.TID 0000.0001) %MON dynstat_salt_del2            =   0.0000000000000E+00
(PID.TID 0000.0001) %MON advcfl_uvel_max              =   1.5783449559716E-04
(PID.TID 0000.0001) %MON advcfl_vvel_max              =   3.6068709432417E-04
(PID.TID 0000.0001) %MON advcfl_wvel_max              =   3.9162705400363E-04
(PID.TID 0000.0001) %MON advcfl_W_hf_max              =   8.5057265398871E-04
(PID.TID 0000.0001) %MON pe_b_mean                    =   4.8288967247543E-09
(PID.TID 0000.0001) %MON ke_max                       =   1.3271897084323E-04
(PID.TID 0000.0001) %MON ke_mean                      =   4.1030811726490E-06
(PID.TID 0000.0001) %MON ke_vol                       =   3.5207326431489E+15
(PID.TID 0000.0001) %MON vort_r_min                   =  -6.9631798246328E-08
(PID.TID 0000.0001) %MON vort_r_max                   =   4.3842915443656E-08
(PID.TID 0000.0001) %MON vort_a_mean                  =  -1.1390240000000E-04
(PID.TID 0000.0001) %MON vort_a_sd                    =   3.6982348967868E-06
(PID.TID 0000.0001) %MON vort_p_mean                  =  -2.2184161870152E-04
(PID.TID 0000.0001) %MON vort_p_sd                    =   1.8699486798800E-04
(PID.TID 0000.0001) %MON surfExpan_theta_mean         =  -4.5133674575482E-22
(PID.TID 0000.0001) %MON surfExpan_salt_mean          =  -3.9312897381905E-21
(PID.TID 0000.0001) // =======================================================
(PID.TID 0000.0001) // End MONITOR dynamic field statistics
(PID.TID 0000.0001) // =======================================================
 cg2d: Sum(rhs),rhsMax =  -8.15320033709099E-17  8.51115729176178E-02
(PID.TID 0000.0001)                    cg2d_init_res =    2.37395342673601E-02
(PID.TID 0000.0001)                       cg2d_iters =    16
(PID.TID 0000.0001)                         cg2d_res =    8.00916092258313E-14
(PID.TID 0000.0001) // =======================================================
(PID.TID 0000.0001) // Begin MONITOR dynamic field statistics
(PID.TID 0000.0001) // =======================================================
(PID.TID 0000.0001) %MON time_tsnumber                =                    84
(PID.TID 0000.0001) %MON time_secondsf                =   3.0240000000000E+05
(PID.TID 0000.0001) %MON dynstat_eta_max              =   4.0055451601515E-03
(PID.TID 0000.0001) %MON dynstat_eta_min              =  -4.5181664751600E-03
(PID.TID 0000.0001) %MON dynstat_eta_mean             =   1.6073347069323E-18
(PID.TID 0000.0001) %MON dynstat_eta_sd               =   2.0583747358159E-03
(PID.TID 0000.0001) %MON dynstat_eta_del2             =   7.3477161461458E-04
(PID.TID 0000.0001) %MON dynstat_uvel_max             =   8.7799435256108E-03
(PID.TID 0000.0001) %MON dynstat_uvel_min             =  -2.4779706746323E-03
(PID.TID 0000.0001) %MON dynstat_uvel_mean            =   4.2735871600979E-04
(PID.TID 0000.0001) %MON dynstat_uvel_sd              =   1.7009645690429E-03
(PID.TID 0000.0001) %MON dynstat_uvel_del2            =   1.0358849956557E-03
(PID.TID 0000.0001) %MON dynstat_vvel_max             =   2.0292495861241E-02
(PID.TID 0000.0001) %MON dynstat_vvel_min             =  -2.4084092541150E-03
(PID.TID 0000.0001) %MON dynstat_vvel_mean            =  -4.5591202643522E-07
(PID.TID 0000.0001) %MON dynstat_vvel_sd              =   2.6353501203802E-03
(PID.TID 0000.0001) %MON dynstat_vvel_del2            =   1.7234767711805E-03
(PID.TID 0000.0001) %MON dynstat_wvel_max             =   1.1739979615973E-05
(PID.TID 0000.0001) %MON dynstat_wvel_min             =  -1.2291644185192E-05
(PID.TID 0000.0001) %MON dynstat_wvel_mean            =   4.8644973763398E-24
(PID.TID 0000.0001) %MON dynstat_wvel_sd              =   8.1192418887523E-06
(PID.TID 0000.0001) %MON dynstat_wvel_del2            =   4.5022649478824E-06
(PID.TID 0000.0001) %MON dynstat_theta_max            =   4.0000000000000E+00
(PID.TID 0000.0001) %MON dynstat_theta_min            =   4.0000000000000E+00
(PID.TID 0000.0001) %MON dynstat_theta_mean           =   4.0000000000000E+00
(PID.TID 0000.0001) %MON dynstat_theta_sd             =   0.0000000000000E+00
(PID.TID 0000.0001) %MON dynstat_theta_del2           =   0.0000000000000E+00
(PID.TID 0000.0001) %MON dynstat_salt_max             =   3.5000000000000E+01
(PID.TID 0000.0001) %MON dynstat_salt_min             =   3.5000000000000E+01
(PID.TID 0000.0001) %MON dynstat_salt_mean            =   3.5000000000000E+01
(PID.TID 0000.0001) %MON dynstat_salt_sd              =   0.0000000000000E+00
(PID.TID 0000.0001) %MON dynstat_salt_del2            =   0.0000000000000E+00
(PID.TID 0000.0001) %MON advcfl_uvel_max              =   1.5803898346099E-04
(PID.TID 0000.0001) %MON advcfl_vvel_max              =   3.6526492550235E-04
(PID.TID 0000.0001) %MON advcfl_wvel_max              =   3.8727463938427E-04
(PID.TID 0000.0001) %MON advcfl_W_hf_max              =   8.4389158757626E-04
(PID.TID 0000.0001) %MON pe_b_mean                    =   4.7222050065348E-09
(PID.TID 0000.0001) %MON ke_max                       =   1.3541316151718E-04
(PID.TID 0000.0001) %MON ke_mean                      =   4.1423593929608E-06
(PID.TID 0000.0001) %MON ke_vol                       =   3.5207326431489E+15
(PID.TID 0000.0001) %MON vort_r_min                   =  -7.0457839397639E-08
(PID.TID 0000.0001) %MON vort_r_max                   =   4.3902823248491E-08
(PID.TID 0000.0001) %MON vort_a_mean                  =  -1.1390240000000E-04
(PID.TID 0000.0001) %MON vort_a_sd                    =   3.6982464176474E-06
(PID.TID 0000.0001) %MON vort_p_mean                  =  -2.2184161870152E-04
(PID.TID 0000.0001) %MON vort_p_sd                    =   1.8699490006067E-04
(PID.TID 0000.0001) %MON surfExpan_theta_mean         =  -6.1959326558281E-23
(PID.TID 0000.0001) %MON surfExpan_salt_mean          =   7.9115436424360E-22
(PID.TID 0000.0001) // =======================================================
(PID.TID 0000.0001) // End MONITOR dynamic field statistics
(PID.TID 0000.0001) // =======================================================
 cg2d: Sum(rhs),rhsMax =  -1.23165366794353E-16  8.44560183072814E-02
(PID.TID 0000.0001)                    cg2d_init_res =    2.35784733032951E-02
(PID.TID 0000.0001)                       cg2d_iters =    17
(PID.TID 0000.0001)                         cg2d_res =    4.96083642568691E-15
(PID.TID 0000.0001) // =======================================================
(PID.TID 0000.0001) // Begin MONITOR dynamic field statistics
(PID.TID 0000.0001) // =======================================================
(PID.TID 0000.0001) %MON time_tsnumber                =                    85
(PID.TID 0000.0001) %MON time_secondsf                =   3.0600000000000E+05
(PID.TID 0000.0001) %MON dynstat_eta_max              =   3.9635504715676E-03
(PID.TID 0000.0001) %MON dynstat_eta_min              =  -4.4767832297665E-03
(PID.TID 0000.0001) %MON dynstat_eta_mean             =   8.7819207692519E-19
(PID.TID 0000.0001) %MON dynstat_eta_sd               =   2.0349438346859E-03
(PID.TID 0000.0001) %MON dynstat_eta_del2             =   7.2505146497856E-04
(PID.TID 0000.0001) %MON dynstat_uvel_max             =   8.7330308953380E-03
(PID.TID 0000.0001) %MON dynstat_uvel_min             =  -2.7945894049381E-03
(PID.TID 0000.0001) %MON dynstat_uvel_mean            =   4.2116918120713E-04
(PID.TID 0000.0001) %MON dynstat_uvel_sd              =   1.6943423511933E-03
(PID.TID 0000.0001) %MON dynstat_uvel_del2            =   1.0496213704132E-03
(PID.TID 0000.0001) %MON dynstat_vvel_max             =   2.0488075116254E-02
(PID.TID 0000.0001) %MON dynstat_vvel_min             =  -2.4070581906446E-03
(PID.TID 0000.0001) %MON dynstat_vvel_mean            =  -3.6210031470341E-07
(PID.TID 0000.0001) %MON dynstat_vvel_sd              =   2.6536310019107E-03
(PID.TID 0000.0001) %MON dynstat_vvel_del2            =   1.7140088387262E-03
(PID.TID 0000.0001) %MON dynstat_wvel_max             =   1.1900902503627E-05
(PID.TID 0000.0001) %MON dynstat_wvel_min             =  -1.2228039402289E-05
(PID.TID 0000.0001) %MON dynstat_wvel_mean            =   2.8646484549556E-23
(PID.TID 0000.0001) %MON dynstat_wvel_sd              =   8.2448123247744E-06
(PID.TID 0000.0001) %MON dynstat_wvel_del2            =   4.5344903771777E-06
(PID.TID 0000.0001) %MON dynstat_theta_max            =   4.0000000000000E+00
(PID.TID 0000.0001) %MON dynstat_theta_min            =   4.0000000000000E+00
(PID.TID 0000.0001) %MON dynstat_theta_mean           =   4.0000000000000E+00
(PID.TID 0000.0001) %MON dynstat_theta_sd             =   0.0000000000000E+00
(PID.TID 0000.0001) %MON dynstat_theta_del2           =   0.0000000000000E+00
(PID.TID 0000.0001) %MON dynstat_salt_max             =   3.5000000000000E+01
(PID.TID 0000.0001) %MON dynstat_salt_min             =   3.5000000000000E+01
(PID.TID 0000.0001) %MON dynstat_salt_mean            =   3.5000000000000E+01
(PID.TID 0000.0001) %MON dynstat_salt_sd              =   0.0000000000000E+00
(PID.TID 0000.0001) %MON dynstat_salt_del2            =   0.0000000000000E+00
(PID.TID 0000.0001) %MON advcfl_uvel_max              =   1.5719455611608E-04
(PID.TID 0000.0001) %MON advcfl_vvel_max              =   3.6878535209257E-04
(PID.TID 0000.0001) %MON advcfl_wvel_max              =   3.8306030753745E-04
(PID.TID 0000.0001) %MON advcfl_W_hf_max              =   8.3868928156861E-04
(PID.TID 0000.0001) %MON pe_b_mean                    =   4.6153092441537E-09
(PID.TID 0000.0001) %MON ke_max                       =   1.3708085641865E-04
(PID.TID 0000.0001) %MON ke_mean                      =   4.1647488506546E-06
(PID.TID 0000.0001) %MON ke_vol                       =   3.5207326431489E+15
(PID.TID 0000.0001) %MON vort_r_min                   =  -7.1621076616659E-08
(PID.TID 0000.0001) %MON vort_r_max                   =   4.4967604025225E-08
(PID.TID 0000.0001) %MON vort_a_mean                  =  -1.1390240000000E-04
(PID.TID 0000.0001) %MON vort_a_sd                    =   3.6982619060276E-06
(PID.TID 0000.0001) %MON vort_p_mean                  =  -2.2184161870152E-04
(PID.TID 0000.0001) %MON vort_p_sd                    =   1.8699493727355E-04
(PID.TID 0000.0001) %MON surfExpan_theta_mean         =  -8.8277829490835E-22
(PID.TID 0000.0001) %MON surfExpan_salt_mean          =  -6.6808797383189E-21
(PID.TID 0000.0001) // =======================================================
(PID.TID 0000.0001) // End MONITOR dynamic field statistics
(PID.TID 0000.0001) // =======================================================
 cg2d: Sum(rhs),rhsMax =   3.78169717762944E-16  8.37354506308109E-02
(PID.TID 0000.0001)                    cg2d_init_res =    2.36890492803215E-02
(PID.TID 0000.0001)                       cg2d_iters =    17
(PID.TID 0000.0001)                         cg2d_res =    3.80095708399406E-15
(PID.TID 0000.0001) // =======================================================
(PID.TID 0000.0001) // Begin MONITOR dynamic field statistics
(PID.TID 0000.0001) // =======================================================
(PID.TID 0000.0001) %MON time_tsnumber                =                    86
(PID.TID 0000.0001) %MON time_secondsf                =   3.0960000000000E+05
(PID.TID 0000.0001) %MON dynstat_eta_max              =   3.9176826973656E-03
(PID.TID 0000.0001) %MON dynstat_eta_min              =  -4.4309991254186E-03
(PID.TID 0000.0001) %MON dynstat_eta_mean             =  -2.5071902200580E-18
(PID.TID 0000.0001) %MON dynstat_eta_sd               =   2.0108574988779E-03
(PID.TID 0000.0001) %MON dynstat_eta_del2             =   7.1534748891946E-04
(PID.TID 0000.0001) %MON dynstat_uvel_max             =   8.6437936199560E-03
(PID.TID 0000.0001) %MON dynstat_uvel_min             =  -3.1862158223460E-03
(PID.TID 0000.0001) %MON dynstat_uvel_mean            =   4.1665445787492E-04
(PID.TID 0000.0001) %MON dynstat_uvel_sd              =   1.6877344923717E-03
(PID.TID 0000.0001) %MON dynstat_uvel_del2            =   1.0659070915764E-03
(PID.TID 0000.0001) %MON dynstat_vvel_max             =   2.0594616841459E-02
(PID.TID 0000.0001) %MON dynstat_vvel_min             =  -2.3990877338502E-03
(PID.TID 0000.0001) %MON dynstat_vvel_mean            =  -2.7012095031726E-07
(PID.TID 0000.0001) %MON dynstat_vvel_sd              =   2.6595194535336E-03
(PID.TID 0000.0001) %MON dynstat_vvel_del2            =   1.7096397777570E-03
(PID.TID 0000.0001) %MON dynstat_wvel_max             =   1.1933259319442E-05
(PID.TID 0000.0001) %MON dynstat_wvel_min             =  -1.2265904264502E-05
(PID.TID 0000.0001) %MON dynstat_wvel_mean            =  -9.8454100745065E-23
(PID.TID 0000.0001) %MON dynstat_wvel_sd              =   8.3253148302709E-06
(PID.TID 0000.0001) %MON dynstat_wvel_del2            =   4.5690571027306E-06
(PID.TID 0000.0001) %MON dynstat_theta_max            =   4.0000000000000E+00
(PID.TID 0000.0001) %MON dynstat_theta_min            =   4.0000000000000E+00
(PID.TID 0000.0001) %MON dynstat_theta_mean           =   4.0000000000000E+00
(PID.TID 0000.0001) %MON dynstat_theta_sd             =   0.0000000000000E+00
(PID.TID 0000.0001) %MON dynstat_theta_del2           =   0.0000000000000E+00
(PID.TID 0000.0001) %MON dynstat_salt_max             =   3.5000000000000E+01
(PID.TID 0000.0001) %MON dynstat_salt_min             =   3.5000000000000E+01
(PID.TID 0000.0001) %MON dynstat_salt_mean            =   3.5000000000000E+01
(PID.TID 0000.0001) %MON dynstat_salt_sd              =   0.0000000000000E+00
(PID.TID 0000.0001) %MON dynstat_salt_del2            =   0.0000000000000E+00
(PID.TID 0000.0001) %MON advcfl_uvel_max              =   1.5558828515921E-04
(PID.TID 0000.0001) %MON advcfl_vvel_max              =   3.7070310314626E-04
(PID.TID 0000.0001) %MON advcfl_wvel_max              =   3.7885927770394E-04
(PID.TID 0000.0001) %MON advcfl_W_hf_max              =   8.4270202739647E-04
(PID.TID 0000.0001) %MON pe_b_mean                    =   4.5066988869800E-09
(PID.TID 0000.0001) %MON ke_max                       =   1.3752874463436E-04
(PID.TID 0000.0001) %MON ke_mean                      =   4.1634157507624E-06
(PID.TID 0000.0001) %MON ke_vol                       =   3.5207326431489E+15
(PID.TID 0000.0001) %MON vort_r_min                   =  -7.2957072724347E-08
(PID.TID 0000.0001) %MON vort_r_max                   =   4.6201811614100E-08
(PID.TID 0000.0001) %MON vort_a_mean                  =  -1.1390240000000E-04
(PID.TID 0000.0001) %MON vort_a_sd                    =   3.6982801158315E-06
(PID.TID 0000.0001) %MON vort_p_mean                  =  -2.2184161870152E-04
(PID.TID 0000.0001) %MON vort_p_sd                    =   1.8699497754345E-04
(PID.TID 0000.0001) %MON surfExpan_theta_mean         =  -1.1866063687194E-22
(PID.TID 0000.0001) %MON surfExpan_salt_mean          =  -1.0211459455789E-21
(PID.TID 0000.0001) // =======================================================
(PID.TID 0000.0001) // End MONITOR dynamic field statistics
(PID.TID 0000.0001) // =======================================================
 cg2d: Sum(rhs),rhsMax =   5.03069808033274E-17  8.29501901320851E-02
(PID.TID 0000.0001)                    cg2d_init_res =    2.40030200903700E-02
(PID.TID 0000.0001)                       cg2d_iters =    17
(PID.TID 0000.0001)                         cg2d_res =    2.04807890749058E-15
(PID.TID 0000.0001) // =======================================================
(PID.TID 0000.0001) // Begin MONITOR dynamic field statistics
(PID.TID 0000.0001) // =======================================================
(PID.TID 0000.0001) %MON time_tsnumber                =                    87
(PID.TID 0000.0001) %MON time_secondsf                =   3.1320000000000E+05
(PID.TID 0000.0001) %MON dynstat_eta_max              =   3.8677463581783E-03
(PID.TID 0000.0001) %MON dynstat_eta_min              =  -4.3807514765159E-03
(PID.TID 0000.0001) %MON dynstat_eta_mean             =  -4.2555329855531E-19
(PID.TID 0000.0001) %MON dynstat_eta_sd               =   1.9858305980093E-03
(PID.TID 0000.0001) %MON dynstat_eta_del2             =   7.0570337199813E-04
(PID.TID 0000.0001) %MON dynstat_uvel_max             =   8.5331800729619E-03
(PID.TID 0000.0001) %MON dynstat_uvel_min             =  -3.5930512910115E-03
(PID.TID 0000.0001) %MON dynstat_uvel_mean            =   4.1374282752908E-04
(PID.TID 0000.0001) %MON dynstat_uvel_sd              =   1.6827599454339E-03
(PID.TID 0000.0001) %MON dynstat_uvel_del2            =   1.0861335028939E-03
(PID.TID 0000.0001) %MON dynstat_vvel_max             =   2.0598093767836E-02
(PID.TID 0000.0001) %MON dynstat_vvel_min             =  -2.3834427291818E-03
(PID.TID 0000.0001) %MON dynstat_vvel_mean            =  -1.7977377340829E-07
(PID.TID 0000.0001) %MON dynstat_vvel_sd              =   2.6504020648026E-03
(PID.TID 0000.0001) %MON dynstat_vvel_del2            =   1.7105788694034E-03
(PID.TID 0000.0001) %MON dynstat_wvel_max             =   1.1824563572614E-05
(PID.TID 0000.0001) %MON dynstat_wvel_min             =  -1.2194464973353E-05
(PID.TID 0000.0001) %MON dynstat_wvel_mean            =   3.5111692601017E-23
(PID.TID 0000.0001) %MON dynstat_wvel_sd              =   8.3499451191151E-06
(PID.TID 0000.0001) %MON dynstat_wvel_del2            =   4.6037305665268E-06
(PID.TID 0000.0001) %MON dynstat_theta_max            =   4.0000000000000E+00
(PID.TID 0000.0001) %MON dynstat_theta_min            =   4.0000000000000E+00
(PID.TID 0000.0001) %MON dynstat_theta_mean           =   4.0000000000000E+00
(PID.TID 0000.0001) %MON dynstat_theta_sd             =   0.0000000000000E+00
(PID.TID 0000.0001) %MON dynstat_theta_del2           =   0.0000000000000E+00
(PID.TID 0000.0001) %MON dynstat_salt_max             =   3.5000000000000E+01
(PID.TID 0000.0001) %MON dynstat_salt_min             =   3.5000000000000E+01
(PID.TID 0000.0001) %MON dynstat_salt_mean            =   3.5000000000000E+01
(PID.TID 0000.0001) %MON dynstat_salt_sd              =   0.0000000000000E+00
(PID.TID 0000.0001) %MON dynstat_salt_del2            =   0.0000000000000E+00
(PID.TID 0000.0001) %MON advcfl_uvel_max              =   1.5359724131331E-04
(PID.TID 0000.0001) %MON advcfl_vvel_max              =   3.7076568782106E-04
(PID.TID 0000.0001) %MON advcfl_wvel_max              =   3.7454126164130E-04
(PID.TID 0000.0001) %MON advcfl_W_hf_max              =   8.4288330285843E-04
(PID.TID 0000.0001) %MON pe_b_mean                    =   4.3952172641137E-09
(PID.TID 0000.0001) %MON ke_max                       =   1.3677207192452E-04
(PID.TID 0000.0001) %MON ke_mean                      =   4.1356687571799E-06
(PID.TID 0000.0001) %MON ke_vol                       =   3.5207326431489E+15
(PID.TID 0000.0001) %MON vort_r_min                   =  -7.4274381792695E-08
(PID.TID 0000.0001) %MON vort_r_max                   =   4.7416206794684E-08
(PID.TID 0000.0001) %MON vort_a_mean                  =  -1.1390240000000E-04
(PID.TID 0000.0001) %MON vort_a_sd                    =   3.6982996491578E-06
(PID.TID 0000.0001) %MON vort_p_mean                  =  -2.2184161870152E-04
(PID.TID 0000.0001) %MON vort_p_sd                    =   1.8699501855521E-04
(PID.TID 0000.0001) %MON surfExpan_theta_mean         =   3.3352876016579E-22
(PID.TID 0000.0001) %MON surfExpan_salt_mean          =   2.3007628441318E-21
(PID.TID 0000.0001) // =======================================================
(PID.TID 0000.0001) // End MONITOR dynamic field statistics
(PID.TID 0000.0001) // =======================================================
 cg2d: Sum(rhs),rhsMax =  -9.84455572616838E-17  8.21071284256575E-02
(PID.TID 0000.0001)                    cg2d_init_res =    2.44298507818472E-02
(PID.TID 0000.0001)                       cg2d_iters =    17
(PID.TID 0000.0001)                         cg2d_res =    1.09317689979067E-16
(PID.TID 0000.0001) // =======================================================
(PID.TID 0000.0001) // Begin MONITOR dynamic field statistics
(PID.TID 0000.0001) // =======================================================
(PID.TID 0000.0001) %MON time_tsnumber                =                    88
(PID.TID 0000.0001) %MON time_secondsf                =   3.1680000000000E+05
(PID.TID 0000.0001) %MON dynstat_eta_max              =   3.8138493675149E-03
(PID.TID 0000.0001) %MON dynstat_eta_min              =  -4.3262562356600E-03
(PID.TID 0000.0001) %MON dynstat_eta_mean             =   5.9091835282743E-19
(PID.TID 0000.0001) %MON dynstat_eta_sd               =   1.9596757016016E-03
(PID.TID 0000.0001) %MON dynstat_eta_del2             =   6.9618604055993E-04
(PID.TID 0000.0001) %MON dynstat_uvel_max             =   8.4235139548157E-03
(PID.TID 0000.0001) %MON dynstat_uvel_min             =  -3.9550270666616E-03
(PID.TID 0000.0001) %MON dynstat_uvel_mean            =   4.1236620096059E-04
(PID.TID 0000.0001) %MON dynstat_uvel_sd              =   1.6794610563361E-03
(PID.TID 0000.0001) %MON dynstat_uvel_del2            =   1.1042724304143E-03
(PID.TID 0000.0001) %MON dynstat_vvel_max             =   2.0501978694747E-02
(PID.TID 0000.0001) %MON dynstat_vvel_min             =  -2.3602942910972E-03
(PID.TID 0000.0001) %MON dynstat_vvel_mean            =  -9.0793062206376E-08
(PID.TID 0000.0001) %MON dynstat_vvel_sd              =   2.6269514943061E-03
(PID.TID 0000.0001) %MON dynstat_vvel_del2            =   1.7163203944495E-03
(PID.TID 0000.0001) %MON dynstat_wvel_max             =   1.1585147511154E-05
(PID.TID 0000.0001) %MON dynstat_wvel_min             =  -1.2019767318435E-05
(PID.TID 0000.0001) %MON dynstat_wvel_mean            =   5.0869337948305E-23
(PID.TID 0000.0001) %MON dynstat_wvel_sd              =   8.3220118773907E-06
(PID.TID 0000.0001) %MON dynstat_wvel_del2            =   4.6369802375166E-06
(PID.TID 0000.0001) %MON dynstat_theta_max            =   4.0000000000000E+00
(PID.TID 0000.0001) %MON dynstat_theta_min            =   4.0000000000000E+00
(PID.TID 0000.0001) %MON dynstat_theta_mean           =   4.0000000000000E+00
(PID.TID 0000.0001) %MON dynstat_theta_sd             =   0.0000000000000E+00
(PID.TID 0000.0001) %MON dynstat_theta_del2           =   0.0000000000000E+00
(PID.TID 0000.0001) %MON dynstat_salt_max             =   3.5000000000000E+01
(PID.TID 0000.0001) %MON dynstat_salt_min             =   3.5000000000000E+01
(PID.TID 0000.0001) %MON dynstat_salt_mean            =   3.5000000000000E+01
(PID.TID 0000.0001) %MON dynstat_salt_sd              =   0.0000000000000E+00
(PID.TID 0000.0001) %MON dynstat_salt_del2            =   0.0000000000000E+00
(PID.TID 0000.0001) %MON advcfl_uvel_max              =   1.5162325118668E-04
(PID.TID 0000.0001) %MON advcfl_vvel_max              =   3.6903561650544E-04
(PID.TID 0000.0001) %MON advcfl_wvel_max              =   3.6999335474310E-04
(PID.TID 0000.0001) %MON advcfl_W_hf_max              =   8.3919292072390E-04
(PID.TID 0000.0001) %MON pe_b_mean                    =   4.2802030020943E-09
(PID.TID 0000.0001) %MON ke_max                       =   1.3502205187267E-04
(PID.TID 0000.0001) %MON ke_mean                      =   4.0831454723524E-06
(PID.TID 0000.0001) %MON ke_vol                       =   3.5207326431489E+15
(PID.TID 0000.0001) %MON vort_r_min                   =  -7.5384767985611E-08
(PID.TID 0000.0001) %MON vort_r_max                   =   4.8425152604664E-08
(PID.TID 0000.0001) %MON vort_a_mean                  =  -1.1390240000000E-04
(PID.TID 0000.0001) %MON vort_a_sd                    =   3.6983191515262E-06
(PID.TID 0000.0001) %MON vort_p_mean                  =  -2.2184161870152E-04
(PID.TID 0000.0001) %MON vort_p_sd                    =   1.8699505808995E-04
(PID.TID 0000.0001) %MON surfExpan_theta_mean         =  -6.8528294150383E-22
(PID.TID 0000.0001) %MON surfExpan_salt_mean          =  -4.0120005928568E-21
(PID.TID 0000.0001) // =======================================================
(PID.TID 0000.0001) // End MONITOR dynamic field statistics
(PID.TID 0000.0001) // =======================================================
 cg2d: Sum(rhs),rhsMax =  -6.76542155630955E-17  8.12189876975221E-02
(PID.TID 0000.0001)                    cg2d_init_res =    2.48729408866725E-02
(PID.TID 0000.0001)                       cg2d_iters =    17
(PID.TID 0000.0001)                         cg2d_res =    1.68190516498547E-15
(PID.TID 0000.0001) // =======================================================
(PID.TID 0000.0001) // Begin MONITOR dynamic field statistics
(PID.TID 0000.0001) // =======================================================
(PID.TID 0000.0001) %MON time_tsnumber                =                    89
(PID.TID 0000.0001) %MON time_secondsf                =   3.2040000000000E+05
(PID.TID 0000.0001) %MON dynstat_eta_max              =   3.7564103482732E-03
(PID.TID 0000.0001) %MON dynstat_eta_min              =  -4.2680014150984E-03
(PID.TID 0000.0001) %MON dynstat_eta_mean             =   3.9031729102135E-19
(PID.TID 0000.0001) %MON dynstat_eta_sd               =   1.9323283711696E-03
(PID.TID 0000.0001) %MON dynstat_eta_del2             =   6.8687833070655E-04
(PID.TID 0000.0001) %MON dynstat_uvel_max             =   8.3348679880229E-03
(PID.TID 0000.0001) %MON dynstat_uvel_min             =  -4.2211033804490E-03
(PID.TID 0000.0001) %MON dynstat_uvel_mean            =   4.1246769999411E-04
(PID.TID 0000.0001) %MON dynstat_uvel_sd              =   1.6764761838705E-03
(PID.TID 0000.0001) %MON dynstat_uvel_del2            =   1.1167509319135E-03
(PID.TID 0000.0001) %MON dynstat_vvel_max             =   2.0325698183731E-02
(PID.TID 0000.0001) %MON dynstat_vvel_min             =  -2.3309782935301E-03
(PID.TID 0000.0001) %MON dynstat_vvel_mean            =  -2.9327986293732E-09
(PID.TID 0000.0001) %MON dynstat_vvel_sd              =   2.5927970048904E-03
(PID.TID 0000.0001) %MON dynstat_vvel_del2            =   1.7257310881876E-03
(PID.TID 0000.0001) %MON dynstat_wvel_max             =   1.1288719715395E-05
(PID.TID 0000.0001) %MON dynstat_wvel_min             =  -1.2037519873991E-05
(PID.TID 0000.0001) %MON dynstat_wvel_mean            =  -2.8916734403798E-23
(PID.TID 0000.0001) %MON dynstat_wvel_sd              =   8.2571838143050E-06
(PID.TID 0000.0001) %MON dynstat_wvel_del2            =   4.6680540889954E-06
(PID.TID 0000.0001) %MON dynstat_theta_max            =   4.0000000000000E+00
(PID.TID 0000.0001) %MON dynstat_theta_min            =   4.0000000000000E+00
(PID.TID 0000.0001) %MON dynstat_theta_mean           =   4.0000000000000E+00
(PID.TID 0000.0001) %MON dynstat_theta_sd             =   0.0000000000000E+00
(PID.TID 0000.0001) %MON dynstat_theta_del2           =   0.0000000000000E+00
(PID.TID 0000.0001) %MON dynstat_salt_max             =   3.5000000000000E+01
(PID.TID 0000.0001) %MON dynstat_salt_min             =   3.5000000000000E+01
(PID.TID 0000.0001) %MON dynstat_salt_mean            =   3.5000000000000E+01
(PID.TID 0000.0001) %MON dynstat_salt_sd              =   0.0000000000000E+00
(PID.TID 0000.0001) %MON dynstat_salt_del2            =   0.0000000000000E+00
(PID.TID 0000.0001) %MON advcfl_uvel_max              =   1.5002762378441E-04
(PID.TID 0000.0001) %MON advcfl_vvel_max              =   3.6586256730715E-04
(PID.TID 0000.0001) %MON advcfl_wvel_max              =   3.6513952501691E-04
(PID.TID 0000.0001) %MON advcfl_W_hf_max              =   8.3220806389751E-04
(PID.TID 0000.0001) %MON pe_b_mean                    =   4.1615758304263E-09
(PID.TID 0000.0001) %MON ke_max                       =   1.3263903722044E-04
(PID.TID 0000.0001) %MON ke_mean                      =   4.0113246150282E-06
(PID.TID 0000.0001) %MON ke_vol                       =   3.5207326431489E+15
(PID.TID 0000.0001) %MON vort_r_min                   =  -7.6131688748365E-08
(PID.TID 0000.0001) %MON vort_r_max                   =   4.9074662965391E-08
(PID.TID 0000.0001) %MON vort_a_mean                  =  -1.1390240000000E-04
(PID.TID 0000.0001) %MON vort_a_sd                    =   3.6983374992035E-06
(PID.TID 0000.0001) %MON vort_p_mean                  =  -2.2184161870152E-04
(PID.TID 0000.0001) %MON vort_p_sd                    =   1.8699509433324E-04
(PID.TID 0000.0001) %MON surfExpan_theta_mean         =  -4.3733905386034E-22
(PID.TID 0000.0001) %MON surfExpan_salt_mean          =  -4.9673198887490E-21
(PID.TID 0000.0001) // =======================================================
(PID.TID 0000.0001) // End MONITOR dynamic field statistics
(PID.TID 0000.0001) // =======================================================
 cg2d: Sum(rhs),rhsMax =  -2.69749500514394E-16  8.03026735601985E-02
(PID.TID 0000.0001)                    cg2d_init_res =    2.52425591767779E-02
(PID.TID 0000.0001)                       cg2d_iters =    17
(PID.TID 0000.0001)                         cg2d_res =    2.92933520999930E-15
(PID.TID 0000.0001) // =======================================================
(PID.TID 0000.0001) // Begin MONITOR dynamic field statistics
(PID.TID 0000.0001) // =======================================================
(PID.TID 0000.0001) %MON time_tsnumber                =                    90
(PID.TID 0000.0001) %MON time_secondsf                =   3.2400000000000E+05
(PID.TID 0000.0001) %MON dynstat_eta_max              =   3.6961180201532E-03
(PID.TID 0000.0001) %MON dynstat_eta_min              =  -4.2066982265421E-03
(PID.TID 0000.0001) %MON dynstat_eta_mean             =   1.8187303794548E-18
(PID.TID 0000.0001) %MON dynstat_eta_sd               =   1.9038597067956E-03
(PID.TID 0000.0001) %MON dynstat_eta_del2             =   6.7786923676225E-04
(PID.TID 0000.0001) %MON dynstat_uvel_max             =   8.2819966914115E-03
(PID.TID 0000.0001) %MON dynstat_uvel_min             =  -4.3567351500102E-03
(PID.TID 0000.0001) %MON dynstat_uvel_mean            =   4.1400650383305E-04
(PID.TID 0000.0001) %MON dynstat_uvel_sd              =   1.6720343607782E-03
(PID.TID 0000.0001) %MON dynstat_uvel_del2            =   1.1220353058856E-03
(PID.TID 0000.0001) %MON dynstat_vvel_max             =   2.0100684070980E-02
(PID.TID 0000.0001) %MON dynstat_vvel_min             =  -2.2977524561011E-03
(PID.TID 0000.0001) %MON dynstat_vvel_mean            =   8.3954995489688E-08
(PID.TID 0000.0001) %MON dynstat_vvel_sd              =   2.5533914566078E-03
(PID.TID 0000.0001) %MON dynstat_vvel_del2            =   1.7372298260529E-03
(PID.TID 0000.0001) %MON dynstat_wvel_max             =   1.1531448598640E-05
(PID.TID 0000.0001) %MON dynstat_wvel_min             =  -1.2144685490925E-05
(PID.TID 0000.0001) %MON dynstat_wvel_mean            =  -1.2745398895017E-22
(PID.TID 0000.0001) %MON dynstat_wvel_sd              =   8.1780358368482E-06
(PID.TID 0000.0001) %MON dynstat_wvel_del2            =   4.6969258673391E-06
(PID.TID 0000.0001) %MON dynstat_theta_max            =   4.0000000000000E+00
(PID.TID 0000.0001) %MON dynstat_theta_min            =   4.0000000000000E+00
(PID.TID 0000.0001) %MON dynstat_theta_mean           =   4.0000000000000E+00
(PID.TID 0000.0001) %MON dynstat_theta_sd             =   0.0000000000000E+00
(PID.TID 0000.0001) %MON dynstat_theta_del2           =   0.0000000000000E+00
(PID.TID 0000.0001) %MON dynstat_salt_max             =   3.5000000000000E+01
(PID.TID 0000.0001) %MON dynstat_salt_min             =   3.5000000000000E+01
(PID.TID 0000.0001) %MON dynstat_salt_mean            =   3.5000000000000E+01
(PID.TID 0000.0001) %MON dynstat_salt_sd              =   0.0000000000000E+00
(PID.TID 0000.0001) %MON dynstat_salt_del2            =   0.0000000000000E+00
(PID.TID 0000.0001) %MON advcfl_uvel_max              =   1.4907594044541E-04
(PID.TID 0000.0001) %MON advcfl_vvel_max              =   3.6181231327764E-04
(PID.TID 0000.0001) %MON advcfl_wvel_max              =   3.5995376906173E-04
(PID.TID 0000.0001) %MON advcfl_W_hf_max              =   8.2997483344932E-04
(PID.TID 0000.0001) %MON pe_b_mean                    =   4.0398555524507E-09
(PID.TID 0000.0001) %MON ke_max                       =   1.3006176972382E-04
(PID.TID 0000.0001) %MON ke_mean                      =   3.9284781210667E-06
(PID.TID 0000.0001) %MON ke_vol                       =   3.5207326431489E+15
(PID.TID 0000.0001) %MON vort_r_min                   =  -7.6412745534275E-08
(PID.TID 0000.0001) %MON vort_r_max                   =   4.9264466408264E-08
(PID.TID 0000.0001) %MON vort_a_mean                  =  -1.1390240000000E-04
(PID.TID 0000.0001) %MON vort_a_sd                    =   3.6983539495263E-06
(PID.TID 0000.0001) %MON vort_p_mean                  =  -2.2184161870152E-04
(PID.TID 0000.0001) %MON vort_p_sd                    =   1.8699512611754E-04
(PID.TID 0000.0001) %MON surfExpan_theta_mean         =  -9.4871666078689E-22
(PID.TID 0000.0001) %MON surfExpan_salt_mean          =  -7.1735867246403E-21
(PID.TID 0000.0001) // =======================================================
(PID.TID 0000.0001) // End MONITOR dynamic field statistics
(PID.TID 0000.0001) // =======================================================
 cg2d: Sum(rhs),rhsMax =  -3.20923843055709E-16  7.93770039758005E-02
(PID.TID 0000.0001)                    cg2d_init_res =    2.54675585431247E-02
(PID.TID 0000.0001)                       cg2d_iters =    16
(PID.TID 0000.0001)                         cg2d_res =    7.27973053409666E-14
(PID.TID 0000.0001) // =======================================================
(PID.TID 0000.0001) // Begin MONITOR dynamic field statistics
(PID.TID 0000.0001) // =======================================================
(PID.TID 0000.0001) %MON time_tsnumber                =                    91
(PID.TID 0000.0001) %MON time_secondsf                =   3.2760000000000E+05
(PID.TID 0000.0001) %MON dynstat_eta_max              =   3.6338501176146E-03
(PID.TID 0000.0001) %MON dynstat_eta_min              =  -4.1431987367478E-03
(PID.TID 0000.0001) %MON dynstat_eta_mean             =   3.6591576645151E-18
(PID.TID 0000.0001) %MON dynstat_eta_sd               =   1.8744741559684E-03
(PID.TID 0000.0001) %MON dynstat_eta_del2             =   6.6924331900484E-04
(PID.TID 0000.0001) %MON dynstat_uvel_max             =   8.2722753283307E-03
(PID.TID 0000.0001) %MON dynstat_uvel_min             =  -4.3484395578410E-03
(PID.TID 0000.0001) %MON dynstat_uvel_mean            =   4.1695931070720E-04
(PID.TID 0000.0001) %MON dynstat_uvel_sd              =   1.6651042081013E-03
(PID.TID 0000.0001) %MON dynstat_uvel_del2            =   1.1196055838032E-03
(PID.TID 0000.0001) %MON dynstat_vvel_max             =   1.9864753899289E-02
(PID.TID 0000.0001) %MON dynstat_vvel_min             =  -2.2634156215861E-03
(PID.TID 0000.0001) %MON dynstat_vvel_mean            =   1.6986141651225E-07
(PID.TID 0000.0001) %MON dynstat_vvel_sd              =   2.5145122992088E-03
(PID.TID 0000.0001) %MON dynstat_vvel_del2            =   1.7490281967074E-03
(PID.TID 0000.0001) %MON dynstat_wvel_max             =   1.1801217006614E-05
(PID.TID 0000.0001) %MON dynstat_wvel_min             =  -1.2281935367254E-05
(PID.TID 0000.0001) %MON dynstat_wvel_mean            =   9.1614700587732E-23
(PID.TID 0000.0001) %MON dynstat_wvel_sd              =   8.1069981908614E-06
(PID.TID 0000.0001) %MON dynstat_wvel_del2            =   4.7241311160992E-06
(PID.TID 0000.0001) %MON dynstat_theta_max            =   4.0000000000000E+00
(PID.TID 0000.0001) %MON dynstat_theta_min            =   4.0000000000000E+00
(PID.TID 0000.0001) %MON dynstat_theta_mean           =   4.0000000000000E+00
(PID.TID 0000.0001) %MON dynstat_theta_sd             =   0.0000000000000E+00
(PID.TID 0000.0001) %MON dynstat_theta_del2           =   0.0000000000000E+00
(PID.TID 0000.0001) %MON dynstat_salt_max             =   3.5000000000000E+01
(PID.TID 0000.0001) %MON dynstat_salt_min             =   3.5000000000000E+01
(PID.TID 0000.0001) %MON dynstat_salt_mean            =   3.5000000000000E+01
(PID.TID 0000.0001) %MON dynstat_salt_sd              =   0.0000000000000E+00
(PID.TID 0000.0001) %MON dynstat_salt_del2            =   0.0000000000000E+00
(PID.TID 0000.0001) %MON advcfl_uvel_max              =   1.4890095590995E-04
(PID.TID 0000.0001) %MON advcfl_vvel_max              =   3.5756557018721E-04
(PID.TID 0000.0001) %MON advcfl_wvel_max              =   3.5446508198353E-04
(PID.TID 0000.0001) %MON advcfl_W_hf_max              =   8.3106247641172E-04
(PID.TID 0000.0001) %MON pe_b_mean                    =   3.9161098520041E-09
(PID.TID 0000.0001) %MON ke_max                       =   1.2772801823999E-04
(PID.TID 0000.0001) %MON ke_mean                      =   3.8442530947080E-06
(PID.TID 0000.0001) %MON ke_vol                       =   3.5207326431489E+15
(PID.TID 0000.0001) %MON vort_r_min                   =  -7.6192931351814E-08
(PID.TID 0000.0001) %MON vort_r_max                   =   4.8960967550867E-08
(PID.TID 0000.0001) %MON vort_a_mean                  =  -1.1390240000000E-04
(PID.TID 0000.0001) %MON vort_a_sd                    =   3.6983682305077E-06
(PID.TID 0000.0001) %MON vort_p_mean                  =  -2.2184161870152E-04
(PID.TID 0000.0001) %MON vort_p_sd                    =   1.8699515306433E-04
(PID.TID 0000.0001) %MON surfExpan_theta_mean         =   4.5957904148963E-22
(PID.TID 0000.0001) %MON surfExpan_salt_mean          =   7.0754324621447E-21
(PID.TID 0000.0001) // =======================================================
(PID.TID 0000.0001) // End MONITOR dynamic field statistics
(PID.TID 0000.0001) // =======================================================
 cg2d: Sum(rhs),rhsMax =  -5.96744875736022E-16  7.84601882554019E-02
(PID.TID 0000.0001)                    cg2d_init_res =    2.55071650357631E-02
(PID.TID 0000.0001)                       cg2d_iters =    16
(PID.TID 0000.0001)                         cg2d_res =    7.21022840208050E-14
(PID.TID 0000.0001) // =======================================================
(PID.TID 0000.0001) // Begin MONITOR dynamic field statistics
(PID.TID 0000.0001) // =======================================================
(PID.TID 0000.0001) %MON time_tsnumber                =                    92
(PID.TID 0000.0001) %MON time_secondsf                =   3.3120000000000E+05
(PID.TID 0000.0001) %MON dynstat_eta_max              =   3.5705652718193E-03
(PID.TID 0000.0001) %MON dynstat_eta_min              =  -4.0783939019422E-03
(PID.TID 0000.0001) %MON dynstat_eta_mean             =   2.9029615689069E-18
(PID.TID 0000.0001) %MON dynstat_eta_sd               =   1.8444921785268E-03
(PID.TID 0000.0001) %MON dynstat_eta_del2             =   6.6107093380184E-04
(PID.TID 0000.0001) %MON dynstat_uvel_max             =   8.3049147671005E-03
(PID.TID 0000.0001) %MON dynstat_uvel_min             =  -4.2048975717224E-03
(PID.TID 0000.0001) %MON dynstat_uvel_mean            =   4.2131831498687E-04
(PID.TID 0000.0001) %MON dynstat_uvel_sd              =   1.6560073637689E-03
(PID.TID 0000.0001) %MON dynstat_uvel_del2            =   1.1099966089412E-03
(PID.TID 0000.0001) %MON dynstat_vvel_max             =   1.9655774515443E-02
(PID.TID 0000.0001) %MON dynstat_vvel_min             =  -2.2952514569167E-03
(PID.TID 0000.0001) %MON dynstat_vvel_mean            =   2.5459023841292E-07
(PID.TID 0000.0001) %MON dynstat_vvel_sd              =   2.4809575598014E-03
(PID.TID 0000.0001) %MON dynstat_vvel_del2            =   1.7593926715798E-03
(PID.TID 0000.0001) %MON dynstat_wvel_max             =   1.2060583806794E-05
(PID.TID 0000.0001) %MON dynstat_wvel_min             =  -1.2427700472994E-05
(PID.TID 0000.0001) %MON dynstat_wvel_mean            =  -2.6609216417585E-24
(PID.TID 0000.0001) %MON dynstat_wvel_sd              =   8.0605467732392E-06
(PID.TID 0000.0001) %MON dynstat_wvel_del2            =   4.7505243536031E-06
(PID.TID 0000.0001) %MON dynstat_theta_max            =   4.0000000000000E+00
(PID.TID 0000.0001) %MON dynstat_theta_min            =   4.0000000000000E+00
(PID.TID 0000.0001) %MON dynstat_theta_mean           =   4.0000000000000E+00
(PID.TID 0000.0001) %MON dynstat_theta_sd             =   0.0000000000000E+00
(PID.TID 0000.0001) %MON dynstat_theta_del2           =   0.0000000000000E+00
(PID.TID 0000.0001) %MON dynstat_salt_max             =   3.5000000000000E+01
(PID.TID 0000.0001) %MON dynstat_salt_min             =   3.5000000000000E+01
(PID.TID 0000.0001) %MON dynstat_salt_mean            =   3.5000000000000E+01
(PID.TID 0000.0001) %MON dynstat_salt_sd              =   0.0000000000000E+00
(PID.TID 0000.0001) %MON dynstat_salt_del2            =   0.0000000000000E+00
(PID.TID 0000.0001) %MON advcfl_uvel_max              =   1.4948846580781E-04
(PID.TID 0000.0001) %MON advcfl_vvel_max              =   3.5380394127797E-04
(PID.TID 0000.0001) %MON advcfl_wvel_max              =   3.4875371728489E-04
(PID.TID 0000.0001) %MON advcfl_W_hf_max              =   8.3210303552188E-04
(PID.TID 0000.0001) %MON pe_b_mean                    =   3.7918363686092E-09
(PID.TID 0000.0001) %MON ke_max                       =   1.2600236001952E-04
(PID.TID 0000.0001) %MON ke_mean                      =   3.7681161850822E-06
(PID.TID 0000.0001) %MON ke_vol                       =   3.5207326431489E+15
(PID.TID 0000.0001) %MON vort_r_min                   =  -7.5507063966116E-08
(PID.TID 0000.0001) %MON vort_r_max                   =   4.8199529813093E-08
(PID.TID 0000.0001) %MON vort_a_mean                  =  -1.1390240000000E-04
(PID.TID 0000.0001) %MON vort_a_sd                    =   3.6983805559604E-06
(PID.TID 0000.0001) %MON vort_p_mean                  =  -2.2184161870152E-04
(PID.TID 0000.0001) %MON vort_p_sd                    =   1.8699517560714E-04
(PID.TID 0000.0001) %MON surfExpan_theta_mean         =  -7.8443918027915E-22
(PID.TID 0000.0001) %MON surfExpan_salt_mean          =  -8.4292717250634E-21
(PID.TID 0000.0001) // =======================================================
(PID.TID 0000.0001) // End MONITOR dynamic field statistics
(PID.TID 0000.0001) // =======================================================
 cg2d: Sum(rhs),rhsMax =  -5.56846235788555E-16  7.75674589250678E-02
(PID.TID 0000.0001)                    cg2d_init_res =    2.53613658061523E-02
(PID.TID 0000.0001)                       cg2d_iters =    16
(PID.TID 0000.0001)                         cg2d_res =    9.40019223366732E-14
(PID.TID 0000.0001) // =======================================================
(PID.TID 0000.0001) // Begin MONITOR dynamic field statistics
(PID.TID 0000.0001) // =======================================================
(PID.TID 0000.0001) %MON time_tsnumber                =                    93
(PID.TID 0000.0001) %MON time_secondsf                =   3.3480000000000E+05
(PID.TID 0000.0001) %MON dynstat_eta_max              =   3.5071851549699E-03
(PID.TID 0000.0001) %MON dynstat_eta_min              =  -4.0131085008721E-03
(PID.TID 0000.0001) %MON dynstat_eta_mean             =   9.2702684924006E-19
(PID.TID 0000.0001) %MON dynstat_eta_sd               =   1.8143196087796E-03
(PID.TID 0000.0001) %MON dynstat_eta_del2             =   6.5340077567334E-04
(PID.TID 0000.0001) %MON dynstat_uvel_max             =   8.3715112031626E-03
(PID.TID 0000.0001) %MON dynstat_uvel_min             =  -3.9545826193831E-03
(PID.TID 0000.0001) %MON dynstat_uvel_mean            =   4.2708614888780E-04
(PID.TID 0000.0001) %MON dynstat_uvel_sd              =   1.6461816333001E-03
(PID.TID 0000.0001) %MON dynstat_uvel_del2            =   1.0946770896165E-03
(PID.TID 0000.0001) %MON dynstat_vvel_max             =   1.9505628260339E-02
(PID.TID 0000.0001) %MON dynstat_vvel_min             =  -2.3404990870111E-03
(PID.TID 0000.0001) %MON dynstat_vvel_mean            =   3.3775975867829E-07
(PID.TID 0000.0001) %MON dynstat_vvel_sd              =   2.4558731203659E-03
(PID.TID 0000.0001) %MON dynstat_vvel_del2            =   1.7668875330096E-03
(PID.TID 0000.0001) %MON dynstat_wvel_max             =   1.2274315096671E-05
(PID.TID 0000.0001) %MON dynstat_wvel_min             =  -1.2559422301258E-05
(PID.TID 0000.0001) %MON dynstat_wvel_mean            =  -4.7252147591540E-23
(PID.TID 0000.0001) %MON dynstat_wvel_sd              =   8.0468894962448E-06
(PID.TID 0000.0001) %MON dynstat_wvel_del2            =   4.7770006559475E-06
(PID.TID 0000.0001) %MON dynstat_theta_max            =   4.0000000000000E+00
(PID.TID 0000.0001) %MON dynstat_theta_min            =   4.0000000000000E+00
(PID.TID 0000.0001) %MON dynstat_theta_mean           =   4.0000000000000E+00
(PID.TID 0000.0001) %MON dynstat_theta_sd             =   0.0000000000000E+00
(PID.TID 0000.0001) %MON dynstat_theta_del2           =   0.0000000000000E+00
(PID.TID 0000.0001) %MON dynstat_salt_max             =   3.5000000000000E+01
(PID.TID 0000.0001) %MON dynstat_salt_min             =   3.5000000000000E+01
(PID.TID 0000.0001) %MON dynstat_salt_mean            =   3.5000000000000E+01
(PID.TID 0000.0001) %MON dynstat_salt_sd              =   0.0000000000000E+00
(PID.TID 0000.0001) %MON dynstat_salt_del2            =   0.0000000000000E+00
(PID.TID 0000.0001) %MON advcfl_uvel_max              =   1.5068720165693E-04
(PID.TID 0000.0001) %MON advcfl_vvel_max              =   3.5110130868610E-04
(PID.TID 0000.0001) %MON advcfl_wvel_max              =   3.4293957794917E-04
(PID.TID 0000.0001) %MON advcfl_W_hf_max              =   8.3266473923618E-04
(PID.TID 0000.0001) %MON pe_b_mean                    =   3.6687958023428E-09
(PID.TID 0000.0001) %MON ke_max                       =   1.2512315205262E-04
(PID.TID 0000.0001) %MON ke_mean                      =   3.7079006107247E-06
(PID.TID 0000.0001) %MON ke_vol                       =   3.5207326431489E+15
(PID.TID 0000.0001) %MON vort_r_min                   =  -7.4451527209203E-08
(PID.TID 0000.0001) %MON vort_r_max                   =   4.7076214349315E-08
(PID.TID 0000.0001) %MON vort_a_mean                  =  -1.1390240000000E-04
(PID.TID 0000.0001) %MON vort_a_sd                    =   3.6983915651211E-06
(PID.TID 0000.0001) %MON vort_p_mean                  =  -2.2184161870152E-04
(PID.TID 0000.0001) %MON vort_p_sd                    =   1.8699519489532E-04
(PID.TID 0000.0001) %MON surfExpan_theta_mean         =   4.2916781239910E-22
(PID.TID 0000.0001) %MON surfExpan_salt_mean          =   2.3338730947842E-21
(PID.TID 0000.0001) // =======================================================
(PID.TID 0000.0001) // End MONITOR dynamic field statistics
(PID.TID 0000.0001) // =======================================================
 cg2d: Sum(rhs),rhsMax =  -2.42861286636753E-17  7.67092227067841E-02
(PID.TID 0000.0001)                    cg2d_init_res =    2.50759544546750E-02
(PID.TID 0000.0001)                       cg2d_iters =    17
(PID.TID 0000.0001)                         cg2d_res =    1.24797455277883E-15
(PID.TID 0000.0001) // =======================================================
(PID.TID 0000.0001) // Begin MONITOR dynamic field statistics
(PID.TID 0000.0001) // =======================================================
(PID.TID 0000.0001) %MON time_tsnumber                =                    94
(PID.TID 0000.0001) %MON time_secondsf                =   3.3840000000000E+05
(PID.TID 0000.0001) %MON dynstat_eta_max              =   3.4444853611875E-03
(PID.TID 0000.0001) %MON dynstat_eta_min              =  -3.9480094071364E-03
(PID.TID 0000.0001) %MON dynstat_eta_mean             =  -2.4458859115839E-20
(PID.TID 0000.0001) %MON dynstat_eta_sd               =   1.7844080145885E-03
(PID.TID 0000.0001) %MON dynstat_eta_del2             =   6.4625582263326E-04
(PID.TID 0000.0001) %MON dynstat_uvel_max             =   8.4577797026760E-03
(PID.TID 0000.0001) %MON dynstat_uvel_min             =  -3.6404455346195E-03
(PID.TID 0000.0001) %MON dynstat_uvel_mean            =   4.3426870072811E-04
(PID.TID 0000.0001) %MON dynstat_uvel_sd              =   1.6372788999958E-03
(PID.TID 0000.0001) %MON dynstat_uvel_del2            =   1.0757918301522E-03
(PID.TID 0000.0001) %MON dynstat_vvel_max             =   1.9435405571634E-02
(PID.TID 0000.0001) %MON dynstat_vvel_min             =  -2.3442815793330E-03
(PID.TID 0000.0001) %MON dynstat_vvel_mean            =   4.1883544476160E-07
(PID.TID 0000.0001) %MON dynstat_vvel_sd              =   2.4407837648541E-03
(PID.TID 0000.0001) %MON dynstat_vvel_del2            =   1.7705625204368E-03
(PID.TID 0000.0001) %MON dynstat_wvel_max             =   1.2414397990940E-05
(PID.TID 0000.0001) %MON dynstat_wvel_min             =  -1.2656878807761E-05
(PID.TID 0000.0001) %MON dynstat_wvel_mean            =   4.9434934875795E-23
(PID.TID 0000.0001) %MON dynstat_wvel_sd              =   8.0673791661075E-06
(PID.TID 0000.0001) %MON dynstat_wvel_del2            =   4.8042287127810E-06
(PID.TID 0000.0001) %MON dynstat_theta_max            =   4.0000000000000E+00
(PID.TID 0000.0001) %MON dynstat_theta_min            =   4.0000000000000E+00
(PID.TID 0000.0001) %MON dynstat_theta_mean           =   4.0000000000000E+00
(PID.TID 0000.0001) %MON dynstat_theta_sd             =   0.0000000000000E+00
(PID.TID 0000.0001) %MON dynstat_theta_del2           =   0.0000000000000E+00
(PID.TID 0000.0001) %MON dynstat_salt_max             =   3.5000000000000E+01
(PID.TID 0000.0001) %MON dynstat_salt_min             =   3.5000000000000E+01
(PID.TID 0000.0001) %MON dynstat_salt_mean            =   3.5000000000000E+01
(PID.TID 0000.0001) %MON dynstat_salt_sd              =   0.0000000000000E+00
(PID.TID 0000.0001) %MON dynstat_salt_del2            =   0.0000000000000E+00
(PID.TID 0000.0001) %MON advcfl_uvel_max              =   1.5224003464817E-04
(PID.TID 0000.0001) %MON advcfl_vvel_max              =   3.4983730028941E-04
(PID.TID 0000.0001) %MON advcfl_wvel_max              =   3.3716477054773E-04
(PID.TID 0000.0001) %MON advcfl_W_hf_max              =   8.3241562481477E-04
(PID.TID 0000.0001) %MON pe_b_mean                    =   3.5488225342166E-09
(PID.TID 0000.0001) %MON ke_max                       =   1.2517484745141E-04
(PID.TID 0000.0001) %MON ke_mean                      =   3.6686703362262E-06
(PID.TID 0000.0001) %MON ke_vol                       =   3.5207326431489E+15
(PID.TID 0000.0001) %MON vort_r_min                   =  -7.3167076563118E-08
(PID.TID 0000.0001) %MON vort_r_max                   =   4.5730721363343E-08
(PID.TID 0000.0001) %MON vort_a_mean                  =  -1.1390240000000E-04
(PID.TID 0000.0001) %MON vort_a_sd                    =   3.6984021987062E-06
(PID.TID 0000.0001) %MON vort_p_mean                  =  -2.2184161870152E-04
(PID.TID 0000.0001) %MON vort_p_sd                    =   1.8699521259618E-04
(PID.TID 0000.0001) %MON surfExpan_theta_mean         =   1.1311840353301E-22
(PID.TID 0000.0001) %MON surfExpan_salt_mean          =   7.0383920913741E-22
(PID.TID 0000.0001) // =======================================================
(PID.TID 0000.0001) // End MONITOR dynamic field statistics
(PID.TID 0000.0001) // =======================================================
 cg2d: Sum(rhs),rhsMax =   3.43475248243408E-16  7.58900036665366E-02
(PID.TID 0000.0001)                    cg2d_init_res =    2.47374076003014E-02
(PID.TID 0000.0001)                       cg2d_iters =    17
(PID.TID 0000.0001)                         cg2d_res =    8.21999541169319E-16
(PID.TID 0000.0001) // =======================================================
(PID.TID 0000.0001) // Begin MONITOR dynamic field statistics
(PID.TID 0000.0001) // =======================================================
(PID.TID 0000.0001) %MON time_tsnumber                =                    95
(PID.TID 0000.0001) %MON time_secondsf                =   3.4200000000000E+05
(PID.TID 0000.0001) %MON dynstat_eta_max              =   3.3830117752987E-03
(PID.TID 0000.0001) %MON dynstat_eta_min              =  -3.8835409822234E-03
(PID.TID 0000.0001) %MON dynstat_eta_mean             =  -2.2321342839859E-18
(PID.TID 0000.0001) %MON dynstat_eta_sd               =   1.7552122736433E-03
(PID.TID 0000.0001) %MON dynstat_eta_del2             =   6.3963321864989E-04
(PID.TID 0000.0001) %MON dynstat_uvel_max             =   8.5461439304264E-03
(PID.TID 0000.0001) %MON dynstat_uvel_min             =  -3.3126140228284E-03
(PID.TID 0000.0001) %MON dynstat_uvel_mean            =   4.4286702864514E-04
(PID.TID 0000.0001) %MON dynstat_uvel_sd              =   1.6301557909639E-03
(PID.TID 0000.0001) %MON dynstat_uvel_del2            =   1.0560649622898E-03
(PID.TID 0000.0001) %MON dynstat_vvel_max             =   1.9452513800030E-02
(PID.TID 0000.0001) %MON dynstat_vvel_min             =  -2.3020735062027E-03
(PID.TID 0000.0001) %MON dynstat_vvel_mean            =   4.9718713517596E-07
(PID.TID 0000.0001) %MON dynstat_vvel_sd              =   2.4360029744302E-03
(PID.TID 0000.0001) %MON dynstat_vvel_del2            =   1.7700592631840E-03
(PID.TID 0000.0001) %MON dynstat_wvel_max             =   1.2463832862861E-05
(PID.TID 0000.0001) %MON dynstat_wvel_min             =  -1.2705051291497E-05
(PID.TID 0000.0001) %MON dynstat_wvel_mean            =   3.4051481634378E-23
(PID.TID 0000.0001) %MON dynstat_wvel_sd              =   8.1196515468229E-06
(PID.TID 0000.0001) %MON dynstat_wvel_del2            =   4.8324388369098E-06
(PID.TID 0000.0001) %MON dynstat_theta_max            =   4.0000000000000E+00
(PID.TID 0000.0001) %MON dynstat_theta_min            =   4.0000000000000E+00
(PID.TID 0000.0001) %MON dynstat_theta_mean           =   4.0000000000000E+00
(PID.TID 0000.0001) %MON dynstat_theta_sd             =   0.0000000000000E+00
(PID.TID 0000.0001) %MON dynstat_theta_del2           =   0.0000000000000E+00
(PID.TID 0000.0001) %MON dynstat_salt_max             =   3.5000000000000E+01
(PID.TID 0000.0001) %MON dynstat_salt_min             =   3.5000000000000E+01
(PID.TID 0000.0001) %MON dynstat_salt_mean            =   3.5000000000000E+01
(PID.TID 0000.0001) %MON dynstat_salt_sd              =   0.0000000000000E+00
(PID.TID 0000.0001) %MON dynstat_salt_del2            =   0.0000000000000E+00
(PID.TID 0000.0001) %MON advcfl_uvel_max              =   1.5383059074768E-04
(PID.TID 0000.0001) %MON advcfl_vvel_max              =   3.5014524840053E-04
(PID.TID 0000.0001) %MON advcfl_wvel_max              =   3.3157319483295E-04
(PID.TID 0000.0001) %MON advcfl_W_hf_max              =   8.3116392808540E-04
(PID.TID 0000.0001) %MON pe_b_mean                    =   3.4336438457417E-09
(PID.TID 0000.0001) %MON ke_max                       =   1.2608612643657E-04
(PID.TID 0000.0001) %MON ke_mean                      =   3.6520610809225E-06
(PID.TID 0000.0001) %MON ke_vol                       =   3.5207326431489E+15
(PID.TID 0000.0001) %MON vort_r_min                   =  -7.1815753133752E-08
(PID.TID 0000.0001) %MON vort_r_max                   =   4.4323547898025E-08
(PID.TID 0000.0001) %MON vort_a_mean                  =  -1.1390240000000E-04
(PID.TID 0000.0001) %MON vort_a_sd                    =   3.6984135336426E-06
(PID.TID 0000.0001) %MON vort_p_mean                  =  -2.2184161870152E-04
(PID.TID 0000.0001) %MON vort_p_sd                    =   1.8699523062826E-04
(PID.TID 0000.0001) %MON surfExpan_theta_mean         =   2.0037305148435E-22
(PID.TID 0000.0001) %MON surfExpan_salt_mean          =   3.1455660298718E-21
(PID.TID 0000.0001) // =======================================================
(PID.TID 0000.0001) // End MONITOR dynamic field statistics
(PID.TID 0000.0001) // =======================================================
 cg2d: Sum(rhs),rhsMax =   7.07767178198537E-16  7.51083191866450E-02
(PID.TID 0000.0001)                    cg2d_init_res =    2.44543515334157E-02
(PID.TID 0000.0001)                       cg2d_iters =    17
(PID.TID 0000.0001)                         cg2d_res =    2.68203033444298E-15
(PID.TID 0000.0001) // =======================================================
(PID.TID 0000.0001) // Begin MONITOR dynamic field statistics
(PID.TID 0000.0001) // =======================================================
(PID.TID 0000.0001) %MON time_tsnumber                =                    96
(PID.TID 0000.0001) %MON time_secondsf                =   3.4560000000000E+05
(PID.TID 0000.0001) %MON dynstat_eta_max              =   3.3230348085590E-03
(PID.TID 0000.0001) %MON dynstat_eta_min              =  -3.8198966899520E-03
(PID.TID 0000.0001) %MON dynstat_eta_mean             =  -4.2920801206492E-18
(PID.TID 0000.0001) %MON dynstat_eta_sd               =   1.7271522628894E-03
(PID.TID 0000.0001) %MON dynstat_eta_del2             =   6.3350799907140E-04
(PID.TID 0000.0001) %MON dynstat_uvel_max             =   8.6187370394062E-03
(PID.TID 0000.0001) %MON dynstat_uvel_min             =  -3.0203260894212E-03
(PID.TID 0000.0001) %MON dynstat_uvel_mean            =   4.5286969627650E-04
(PID.TID 0000.0001) %MON dynstat_uvel_sd              =   1.6243706913728E-03
(PID.TID 0000.0001) %MON dynstat_uvel_del2            =   1.0398324402829E-03
(PID.TID 0000.0001) %MON dynstat_vvel_max             =   1.9550062502868E-02
(PID.TID 0000.0001) %MON dynstat_vvel_min             =  -2.2169416261114E-03
(PID.TID 0000.0001) %MON dynstat_vvel_mean            =   5.7216110153492E-07
(PID.TID 0000.0001) %MON dynstat_vvel_sd              =   2.4409535210812E-03
(PID.TID 0000.0001) %MON dynstat_vvel_del2            =   1.7656241868165E-03
(PID.TID 0000.0001) %MON dynstat_wvel_max             =   1.2418659457935E-05
(PID.TID 0000.0001) %MON dynstat_wvel_min             =  -1.2696101143324E-05
(PID.TID 0000.0001) %MON dynstat_wvel_mean            =  -4.3406284281186E-23
(PID.TID 0000.0001) %MON dynstat_wvel_sd              =   8.1997946005398E-06
(PID.TID 0000.0001) %MON dynstat_wvel_del2            =   4.8612991803883E-06
(PID.TID 0000.0001) %MON dynstat_theta_max            =   4.0000000000000E+00
(PID.TID 0000.0001) %MON dynstat_theta_min            =   4.0000000000000E+00
(PID.TID 0000.0001) %MON dynstat_theta_mean           =   4.0000000000000E+00
(PID.TID 0000.0001) %MON dynstat_theta_sd             =   0.0000000000000E+00
(PID.TID 0000.0001) %MON dynstat_theta_del2           =   0.0000000000000E+00
(PID.TID 0000.0001) %MON dynstat_salt_max             =   3.5000000000000E+01
(PID.TID 0000.0001) %MON dynstat_salt_min             =   3.5000000000000E+01
(PID.TID 0000.0001) %MON dynstat_salt_mean            =   3.5000000000000E+01
(PID.TID 0000.0001) %MON dynstat_salt_sd              =   0.0000000000000E+00
(PID.TID 0000.0001) %MON dynstat_salt_del2            =   0.0000000000000E+00
(PID.TID 0000.0001) %MON advcfl_uvel_max              =   1.5513726670931E-04
(PID.TID 0000.0001) %MON advcfl_vvel_max              =   3.5190112505163E-04
(PID.TID 0000.0001) %MON advcfl_wvel_max              =   3.2629041511332E-04
(PID.TID 0000.0001) %MON advcfl_W_hf_max              =   8.2887554101435E-04
(PID.TID 0000.0001) %MON pe_b_mean                    =   3.3247362886852E-09
(PID.TID 0000.0001) %MON ke_max                       =   1.2765044644785E-04
(PID.TID 0000.0001) %MON ke_mean                      =   3.6561809596909E-06
(PID.TID 0000.0001) %MON ke_vol                       =   3.5207326431489E+15
(PID.TID 0000.0001) %MON vort_r_min                   =  -7.0555711045144E-08
(PID.TID 0000.0001) %MON vort_r_max                   =   4.3093685197031E-08
(PID.TID 0000.0001) %MON vort_a_mean                  =  -1.1390240000000E-04
(PID.TID 0000.0001) %MON vort_a_sd                    =   3.6984266044235E-06
(PID.TID 0000.0001) %MON vort_p_mean                  =  -2.2184161870152E-04
(PID.TID 0000.0001) %MON vort_p_sd                    =   1.8699525086760E-04
(PID.TID 0000.0001) %MON surfExpan_theta_mean         =   1.7223555914825E-22
(PID.TID 0000.0001) %MON surfExpan_salt_mean          =   2.3301838236733E-21
(PID.TID 0000.0001) // =======================================================
(PID.TID 0000.0001) // End MONITOR dynamic field statistics
(PID.TID 0000.0001) // =======================================================
 cg2d: Sum(rhs),rhsMax =   4.23272528138341E-16  7.43574803023902E-02
(PID.TID 0000.0001)                    cg2d_init_res =    2.43274389304139E-02
(PID.TID 0000.0001)                       cg2d_iters =    17
(PID.TID 0000.0001)                         cg2d_res =    3.30713594923084E-15
(PID.TID 0000.0001) // =======================================================
(PID.TID 0000.0001) // Begin MONITOR dynamic field statistics
(PID.TID 0000.0001) // =======================================================
(PID.TID 0000.0001) %MON time_tsnumber                =                    97
(PID.TID 0000.0001) %MON time_secondsf                =   3.4920000000000E+05
(PID.TID 0000.0001) %MON dynstat_eta_max              =   3.2645475736861E-03
(PID.TID 0000.0001) %MON dynstat_eta_min              =  -3.7570301519058E-03
(PID.TID 0000.0001) %MON dynstat_eta_mean             =  -2.6061417884193E-18
(PID.TID 0000.0001) %MON dynstat_eta_sd               =   1.7005846737164E-03
(PID.TID 0000.0001) %MON dynstat_eta_del2             =   6.2783996578309E-04
(PID.TID 0000.0001) %MON dynstat_uvel_max             =   8.6603258018999E-03
(PID.TID 0000.0001) %MON dynstat_uvel_min             =  -2.8043779078053E-03
(PID.TID 0000.0001) %MON dynstat_uvel_mean            =   4.6424675406732E-04
(PID.TID 0000.0001) %MON dynstat_uvel_sd              =   1.6184778339339E-03
(PID.TID 0000.0001) %MON dynstat_uvel_del2            =   1.0269636821632E-03
(PID.TID 0000.0001) %MON dynstat_vvel_max             =   1.9708516038678E-02
(PID.TID 0000.0001) %MON dynstat_vvel_min             =  -2.1522806546009E-03
(PID.TID 0000.0001) %MON dynstat_vvel_mean            =   6.4315550513807E-07
(PID.TID 0000.0001) %MON dynstat_vvel_sd              =   2.4541486310819E-03
(PID.TID 0000.0001) %MON dynstat_vvel_del2            =   1.7580304512912E-03
(PID.TID 0000.0001) %MON dynstat_wvel_max             =   1.2287959177395E-05
(PID.TID 0000.0001) %MON dynstat_wvel_min             =  -1.2630179369897E-05
(PID.TID 0000.0001) %MON dynstat_wvel_mean            =   9.5522929249065E-23
(PID.TID 0000.0001) %MON dynstat_wvel_sd              =   8.3021854453543E-06
(PID.TID 0000.0001) %MON dynstat_wvel_del2            =   4.8898982966630E-06
(PID.TID 0000.0001) %MON dynstat_theta_max            =   4.0000000000000E+00
(PID.TID 0000.0001) %MON dynstat_theta_min            =   4.0000000000000E+00
(PID.TID 0000.0001) %MON dynstat_theta_mean           =   4.0000000000000E+00
(PID.TID 0000.0001) %MON dynstat_theta_sd             =   0.0000000000000E+00
(PID.TID 0000.0001) %MON dynstat_theta_del2           =   0.0000000000000E+00
(PID.TID 0000.0001) %MON dynstat_salt_max             =   3.5000000000000E+01
(PID.TID 0000.0001) %MON dynstat_salt_min             =   3.5000000000000E+01
(PID.TID 0000.0001) %MON dynstat_salt_mean            =   3.5000000000000E+01
(PID.TID 0000.0001) %MON dynstat_salt_sd              =   0.0000000000000E+00
(PID.TID 0000.0001) %MON dynstat_salt_del2            =   0.0000000000000E+00
(PID.TID 0000.0001) %MON advcfl_uvel_max              =   1.5588586443420E-04
(PID.TID 0000.0001) %MON advcfl_vvel_max              =   3.5475328869621E-04
(PID.TID 0000.0001) %MON advcfl_wvel_max              =   3.2140692284926E-04
(PID.TID 0000.0001) %MON advcfl_W_hf_max              =   8.2566705664961E-04
(PID.TID 0000.0001) %MON pe_b_mean                    =   3.2232387330887E-09
(PID.TID 0000.0001) %MON ke_max                       =   1.2956382743338E-04
(PID.TID 0000.0001) %MON ke_mean                      =   3.6760649927075E-06
(PID.TID 0000.0001) %MON ke_vol                       =   3.5207326431489E+15
(PID.TID 0000.0001) %MON vort_r_min                   =  -6.9517905198439E-08
(PID.TID 0000.0001) %MON vort_r_max                   =   4.3301629009500E-08
(PID.TID 0000.0001) %MON vort_a_mean                  =  -1.1390240000000E-04
(PID.TID 0000.0001) %MON vort_a_sd                    =   3.6984422394287E-06
(PID.TID 0000.0001) %MON vort_p_mean                  =  -2.2184161870152E-04
(PID.TID 0000.0001) %MON vort_p_sd                    =   1.8699527487158E-04
(PID.TID 0000.0001) %MON surfExpan_theta_mean         =   3.0127011996228E-22
(PID.TID 0000.0001) %MON surfExpan_salt_mean          =   2.1993895593653E-21
(PID.TID 0000.0001) // =======================================================
(PID.TID 0000.0001) // End MONITOR dynamic field statistics
(PID.TID 0000.0001) // =======================================================
 cg2d: Sum(rhs),rhsMax =   4.37150315946155E-16  7.36271655782089E-02
(PID.TID 0000.0001)                    cg2d_init_res =    2.44173643428291E-02
(PID.TID 0000.0001)                       cg2d_iters =    16
(PID.TID 0000.0001)                         cg2d_res =    5.66281543318471E-14
(PID.TID 0000.0001) // =======================================================
(PID.TID 0000.0001) // Begin MONITOR dynamic field statistics
(PID.TID 0000.0001) // =======================================================
(PID.TID 0000.0001) %MON time_tsnumber                =                    98
(PID.TID 0000.0001) %MON time_secondsf                =   3.5280000000000E+05
(PID.TID 0000.0001) %MON dynstat_eta_max              =   3.2073069081329E-03
(PID.TID 0000.0001) %MON dynstat_eta_min              =  -3.6947027130823E-03
(PID.TID 0000.0001) %MON dynstat_eta_mean             =  -4.8768924898468E-18
(PID.TID 0000.0001) %MON dynstat_eta_sd               =   1.6757887712363E-03
(PID.TID 0000.0001) %MON dynstat_eta_del2             =   6.2258254300516E-04
(PID.TID 0000.0001) %MON dynstat_uvel_max             =   8.6607045686916E-03
(PID.TID 0000.0001) %MON dynstat_uvel_min             =  -2.6912277037523E-03
(PID.TID 0000.0001) %MON dynstat_uvel_mean            =   4.7694629868251E-04
(PID.TID 0000.0001) %MON dynstat_uvel_sd              =   1.6109029830715E-03
(PID.TID 0000.0001) %MON dynstat_uvel_del2            =   1.0176847845904E-03
(PID.TID 0000.0001) %MON dynstat_vvel_max             =   1.9899253893276E-02
(PID.TID 0000.0001) %MON dynstat_vvel_min             =  -2.1515423162500E-03
(PID.TID 0000.0001) %MON dynstat_vvel_mean            =   7.0968774848529E-07
(PID.TID 0000.0001) %MON dynstat_vvel_sd              =   2.4729726238276E-03
(PID.TID 0000.0001) %MON dynstat_vvel_del2            =   1.7484252631158E-03
(PID.TID 0000.0001) %MON dynstat_wvel_max             =   1.2091895121659E-05
(PID.TID 0000.0001) %MON dynstat_wvel_min             =  -1.2514983273444E-05
(PID.TID 0000.0001) %MON dynstat_wvel_mean            =   4.7148205339909E-23
(PID.TID 0000.0001) %MON dynstat_wvel_sd              =   8.4177885584001E-06
(PID.TID 0000.0001) %MON dynstat_wvel_del2            =   4.9168346709520E-06
(PID.TID 0000.0001) %MON dynstat_theta_max            =   4.0000000000000E+00
(PID.TID 0000.0001) %MON dynstat_theta_min            =   4.0000000000000E+00
(PID.TID 0000.0001) %MON dynstat_theta_mean           =   4.0000000000000E+00
(PID.TID 0000.0001) %MON dynstat_theta_sd             =   0.0000000000000E+00
(PID.TID 0000.0001) %MON dynstat_theta_del2           =   0.0000000000000E+00
(PID.TID 0000.0001) %MON dynstat_salt_max             =   3.5000000000000E+01
(PID.TID 0000.0001) %MON dynstat_salt_min             =   3.5000000000000E+01
(PID.TID 0000.0001) %MON dynstat_salt_mean            =   3.5000000000000E+01
(PID.TID 0000.0001) %MON dynstat_salt_sd              =   0.0000000000000E+00
(PID.TID 0000.0001) %MON dynstat_salt_del2            =   0.0000000000000E+00
(PID.TID 0000.0001) %MON advcfl_uvel_max              =   1.5589268223645E-04
(PID.TID 0000.0001) %MON advcfl_vvel_max              =   3.5818657007897E-04
(PID.TID 0000.0001) %MON advcfl_wvel_max              =   3.1696728595487E-04
(PID.TID 0000.0001) %MON advcfl_W_hf_max              =   8.2177673914687E-04
(PID.TID 0000.0001) %MON pe_b_mean                    =   3.1299291288731E-09
(PID.TID 0000.0001) %MON ke_max                       =   1.3147414148238E-04
(PID.TID 0000.0001) %MON ke_mean                      =   3.7045908845443E-06
(PID.TID 0000.0001) %MON ke_vol                       =   3.5207326431489E+15
(PID.TID 0000.0001) %MON vort_r_min                   =  -6.8788116478565E-08
(PID.TID 0000.0001) %MON vort_r_max                   =   4.3303522843458E-08
(PID.TID 0000.0001) %MON vort_a_mean                  =  -1.1390240000000E-04
(PID.TID 0000.0001) %MON vort_a_sd                    =   3.6984609362499E-06
(PID.TID 0000.0001) %MON vort_p_mean                  =  -2.2184161870152E-04
(PID.TID 0000.0001) %MON vort_p_sd                    =   1.8699530366070E-04
(PID.TID 0000.0001) %MON surfExpan_theta_mean         =  -8.2422957348172E-23
(PID.TID 0000.0001) %MON surfExpan_salt_mean          =   1.4285461702457E-22
(PID.TID 0000.0001) // =======================================================
(PID.TID 0000.0001) // End MONITOR dynamic field statistics
(PID.TID 0000.0001) // =======================================================
 cg2d: Sum(rhs),rhsMax =   6.31439345255558E-16  7.29055030912946E-02
(PID.TID 0000.0001)                    cg2d_init_res =    2.47259861841104E-02
(PID.TID 0000.0001)                       cg2d_iters =    17
(PID.TID 0000.0001)                         cg2d_res =    3.27775893985057E-15
(PID.TID 0000.0001) // =======================================================
(PID.TID 0000.0001) // Begin MONITOR dynamic field statistics
(PID.TID 0000.0001) // =======================================================
(PID.TID 0000.0001) %MON time_tsnumber                =                    99
(PID.TID 0000.0001) %MON time_secondsf                =   3.5640000000000E+05
(PID.TID 0000.0001) %MON dynstat_eta_max              =   3.1509093674577E-03
(PID.TID 0000.0001) %MON dynstat_eta_min              =  -3.6325590759164E-03
(PID.TID 0000.0001) %MON dynstat_eta_mean             =  -3.6899997212458E-18
(PID.TID 0000.0001) %MON dynstat_eta_sd               =   1.6529671099049E-03
(PID.TID 0000.0001) %MON dynstat_eta_del2             =   6.1769216548565E-04
(PID.TID 0000.0001) %MON dynstat_uvel_max             =   8.6162083935283E-03
(PID.TID 0000.0001) %MON dynstat_uvel_min             =  -2.6895893312745E-03
(PID.TID 0000.0001) %MON dynstat_uvel_mean            =   4.9089411437469E-04
(PID.TID 0000.0001) %MON dynstat_uvel_sd              =   1.6008493514170E-03
(PID.TID 0000.0001) %MON dynstat_uvel_del2            =   1.0123619943212E-03
(PID.TID 0000.0001) %MON dynstat_vvel_max             =   2.0089400783255E-02
(PID.TID 0000.0001) %MON dynstat_vvel_min             =  -2.1513274865014E-03
(PID.TID 0000.0001) %MON dynstat_vvel_mean            =   7.7144378688136E-07
(PID.TID 0000.0001) %MON dynstat_vvel_sd              =   2.4936425190738E-03
(PID.TID 0000.0001) %MON dynstat_vvel_del2            =   1.7381295404443E-03
(PID.TID 0000.0001) %MON dynstat_wvel_max             =   1.1858152671945E-05
(PID.TID 0000.0001) %MON dynstat_wvel_min             =  -1.2364172543055E-05
(PID.TID 0000.0001) %MON dynstat_wvel_mean            =  -1.3271346688271E-22
(PID.TID 0000.0001) %MON dynstat_wvel_sd              =   8.5330134243293E-06
(PID.TID 0000.0001) %MON dynstat_wvel_del2            =   4.9403967304555E-06
(PID.TID 0000.0001) %MON dynstat_theta_max            =   4.0000000000000E+00
(PID.TID 0000.0001) %MON dynstat_theta_min            =   4.0000000000000E+00
(PID.TID 0000.0001) %MON dynstat_theta_mean           =   4.0000000000000E+00
(PID.TID 0000.0001) %MON dynstat_theta_sd             =   0.0000000000000E+00
(PID.TID 0000.0001) %MON dynstat_theta_del2           =   0.0000000000000E+00
(PID.TID 0000.0001) %MON dynstat_salt_max             =   3.5000000000000E+01
(PID.TID 0000.0001) %MON dynstat_salt_min             =   3.5000000000000E+01
(PID.TID 0000.0001) %MON dynstat_salt_mean            =   3.5000000000000E+01
(PID.TID 0000.0001) %MON dynstat_salt_sd              =   0.0000000000000E+00
(PID.TID 0000.0001) %MON dynstat_salt_del2            =   0.0000000000000E+00
(PID.TID 0000.0001) %MON advcfl_uvel_max              =   1.5509175108351E-04
(PID.TID 0000.0001) %MON advcfl_vvel_max              =   3.6160921409859E-04
(PID.TID 0000.0001) %MON advcfl_wvel_max              =   3.1296669468978E-04
(PID.TID 0000.0001) %MON advcfl_W_hf_max              =   8.1751900820917E-04
(PID.TID 0000.0001) %MON pe_b_mean                    =   3.0452599876690E-09
(PID.TID 0000.0001) %MON ke_max                       =   1.3303578059081E-04
(PID.TID 0000.0001) %MON ke_mean                      =   3.7336929417519E-06
(PID.TID 0000.0001) %MON ke_vol                       =   3.5207326431489E+15
(PID.TID 0000.0001) %MON vort_r_min                   =  -6.8396810412381E-08
(PID.TID 0000.0001) %MON vort_r_max                   =   4.3081041967641E-08
(PID.TID 0000.0001) %MON vort_a_mean                  =  -1.1390240000000E-04
(PID.TID 0000.0001) %MON vort_a_sd                    =   3.6984827925582E-06
(PID.TID 0000.0001) %MON vort_p_mean                  =  -2.2184161870152E-04
(PID.TID 0000.0001) %MON vort_p_sd                    =   1.8699533758834E-04
(PID.TID 0000.0001) %MON surfExpan_theta_mean         =  -1.7132606444648E-21
(PID.TID 0000.0001) %MON surfExpan_salt_mean          =  -1.4268968229203E-20
(PID.TID 0000.0001) // =======================================================
(PID.TID 0000.0001) // End MONITOR dynamic field statistics
(PID.TID 0000.0001) // =======================================================
 cg2d: Sum(rhs),rhsMax =   7.14706072102445E-16  7.21813242235991E-02
(PID.TID 0000.0001)                    cg2d_init_res =    2.52004072219183E-02
(PID.TID 0000.0001)                       cg2d_iters =    17
(PID.TID 0000.0001)                         cg2d_res =    5.51804875722324E-15
(PID.TID 0000.0001) // =======================================================
(PID.TID 0000.0001) // Begin MONITOR dynamic field statistics
(PID.TID 0000.0001) // =======================================================
(PID.TID 0000.0001) %MON time_tsnumber                =                   100
(PID.TID 0000.0001) %MON time_secondsf                =   3.6000000000000E+05
(PID.TID 0000.0001) %MON dynstat_eta_max              =   3.0948890347587E-03
(PID.TID 0000.0001) %MON dynstat_eta_min              =  -3.5702184711596E-03
(PID.TID 0000.0001) %MON dynstat_eta_mean             =  -4.2927385948133E-18
(PID.TID 0000.0001) %MON dynstat_eta_sd               =   1.6322596057481E-03
(PID.TID 0000.0001) %MON dynstat_eta_del2             =   6.1349351514065E-04
(PID.TID 0000.0001) %MON dynstat_uvel_max             =   8.5301465571338E-03
(PID.TID 0000.0001) %MON dynstat_uvel_min             =  -2.7899275654195E-03
(PID.TID 0000.0001) %MON dynstat_uvel_mean            =   5.0599640498596E-04
(PID.TID 0000.0001) %MON dynstat_uvel_sd              =   1.5887156585259E-03
(PID.TID 0000.0001) %MON dynstat_uvel_del2            =   1.0106748574818E-03
(PID.TID 0000.0001) %MON dynstat_vvel_max             =   2.0247121409975E-02
(PID.TID 0000.0001) %MON dynstat_vvel_min             =  -2.1491283624452E-03
(PID.TID 0000.0001) %MON dynstat_vvel_mean            =   8.2830235998853E-07
(PID.TID 0000.0001) %MON dynstat_vvel_sd              =   2.5116497334129E-03
(PID.TID 0000.0001) %MON dynstat_vvel_del2            =   1.7284229197788E-03
(PID.TID 0000.0001) %MON dynstat_wvel_max             =   1.1617379807655E-05
(PID.TID 0000.0001) %MON dynstat_wvel_min             =  -1.2194930807223E-05
(PID.TID 0000.0001) %MON dynstat_wvel_mean            =   2.2700987756252E-23
(PID.TID 0000.0001) %MON dynstat_wvel_sd              =   8.6308410742687E-06
(PID.TID 0000.0001) %MON dynstat_wvel_del2            =   4.9588028301695E-06
(PID.TID 0000.0001) %MON dynstat_theta_max            =   4.0000000000000E+00
(PID.TID 0000.0001) %MON dynstat_theta_min            =   4.0000000000000E+00
(PID.TID 0000.0001) %MON dynstat_theta_mean           =   4.0000000000000E+00
(PID.TID 0000.0001) %MON dynstat_theta_sd             =   0.0000000000000E+00
(PID.TID 0000.0001) %MON dynstat_theta_del2           =   0.0000000000000E+00
(PID.TID 0000.0001) %MON dynstat_salt_max             =   3.5000000000000E+01
(PID.TID 0000.0001) %MON dynstat_salt_min             =   3.5000000000000E+01
(PID.TID 0000.0001) %MON dynstat_salt_mean            =   3.5000000000000E+01
(PID.TID 0000.0001) %MON dynstat_salt_sd              =   0.0000000000000E+00
(PID.TID 0000.0001) %MON dynstat_salt_del2            =   0.0000000000000E+00
(PID.TID 0000.0001) %MON advcfl_uvel_max              =   1.5354263802841E-04
(PID.TID 0000.0001) %MON advcfl_vvel_max              =   3.6444818537954E-04
(PID.TID 0000.0001) %MON advcfl_wvel_max              =   3.0935521811876E-04
(PID.TID 0000.0001) %MON advcfl_W_hf_max              =   8.1323025519093E-04
(PID.TID 0000.0001) %MON pe_b_mean                    =   2.9694390667830E-09
(PID.TID 0000.0001) %MON ke_max                       =   1.3396282017100E-04
(PID.TID 0000.0001) %MON ke_mean                      =   3.7556693037912E-06
(PID.TID 0000.0001) %MON ke_vol                       =   3.5207326431489E+15
(PID.TID 0000.0001) %MON vort_r_min                   =  -6.8318007045296E-08
(PID.TID 0000.0001) %MON vort_r_max                   =   4.2650732785669E-08
(PID.TID 0000.0001) %MON vort_a_mean                  =  -1.1390240000000E-04
(PID.TID 0000.0001) %MON vort_a_sd                    =   3.6985074999957E-06
(PID.TID 0000.0001) %MON vort_p_mean                  =  -2.2184161870152E-04
(PID.TID 0000.0001) %MON vort_p_sd                    =   1.8699537631438E-04
(PID.TID 0000.0001) %MON surfExpan_theta_mean         =   1.5916157281026E-22
(PID.TID 0000.0001) %MON surfExpan_salt_mean          =   1.2118772652059E-21
(PID.TID 0000.0001) // =======================================================
(PID.TID 0000.0001) // End MONITOR dynamic field statistics
(PID.TID 0000.0001) // =======================================================
 --> objf_test(bi,bj)   = -0.849803597943908E+00
 --> objf_tracer(bi,bj) =  0.000000000000000E+00
 --> objf_atl(bi,bj)    =  0.000000000000000E+00
  local fc = -0.849803597943908E+00
 global fc = -0.849803597943908E+00
 cg2d: Sum(rhs),rhsMax =   0.00000000000000E+00  0.00000000000000E+00
 cg2d: Sum(rhs),rhsMax =   4.68375338513738E-16  2.62483626325265E-03
 cg2d: Sum(rhs),rhsMax =   3.76434994286967E-16  5.13362633360820E-03
 cg2d: Sum(rhs),rhsMax =   2.51534904016637E-16  7.16168459280808E-03
 cg2d: Sum(rhs),rhsMax =   6.80878964320897E-16  9.29466755986014E-03
 cg2d: Sum(rhs),rhsMax =   9.26342336171615E-16  1.15304356797511E-02
 cg2d: Sum(rhs),rhsMax =   6.98659879949659E-16  1.37809802353870E-02
 cg2d: Sum(rhs),rhsMax =   9.71445146547012E-16  1.60011247469289E-02
 cg2d: Sum(rhs),rhsMax =   5.20417042793042E-16  1.82027337912225E-02
 cg2d: Sum(rhs),rhsMax =   6.93889390390723E-17  2.04493560871551E-02
 cg2d: Sum(rhs),rhsMax =   2.08166817117217E-16  2.25706027739098E-02
 cg2d: Sum(rhs),rhsMax =   6.24500451351651E-16  2.45301657162020E-02
 cg2d: Sum(rhs),rhsMax =   9.15933995315754E-16  2.63097944374927E-02
 cg2d: Sum(rhs),rhsMax =   9.71445146547012E-17  2.79110497217142E-02
 cg2d: Sum(rhs),rhsMax =   1.38777878078145E-17  2.93538602383664E-02
 cg2d: Sum(rhs),rhsMax =   3.33066907387547E-16  3.06720439109423E-02
 cg2d: Sum(rhs),rhsMax =  -4.99600361081320E-16  3.19067816610536E-02
 cg2d: Sum(rhs),rhsMax =  -4.16333634234434E-17  3.30992667639499E-02
 cg2d: Sum(rhs),rhsMax =  -6.31439345255558E-16  3.42837432842201E-02
 cg2d: Sum(rhs),rhsMax =  -1.17961196366423E-16  3.54819650782976E-02
 cg2d: Sum(rhs),rhsMax =  -4.02455846426619E-16  3.66998058458972E-02
 cg2d: Sum(rhs),rhsMax =  -3.53883589099269E-16  3.79264045504640E-02
 cg2d: Sum(rhs),rhsMax =  -1.45716771982052E-16  3.91358858388561E-02
 cg2d: Sum(rhs),rhsMax =  -1.80411241501588E-16  4.02913639261801E-02
 cg2d: Sum(rhs),rhsMax =  -8.18789480661053E-16  4.13506294670109E-02
 cg2d: Sum(rhs),rhsMax =  -2.22044604925031E-16  4.22726606684742E-02
 cg2d: Sum(rhs),rhsMax =  -2.08166817117217E-16  4.30239435265244E-02
 cg2d: Sum(rhs),rhsMax =  -3.88578058618805E-16  4.35835862263463E-02
 cg2d: Sum(rhs),rhsMax =  -2.08166817117217E-16  4.39463978549371E-02
 cg2d: Sum(rhs),rhsMax =   1.38777878078145E-16  4.41234514687522E-02
 cg2d: Sum(rhs),rhsMax =   3.74700270810990E-16  4.41400962296584E-02
 cg2d: Sum(rhs),rhsMax =   5.55111512312578E-16  4.40318241364020E-02
 cg2d: Sum(rhs),rhsMax =   1.66533453693773E-16  4.38387397480459E-02
 cg2d: Sum(rhs),rhsMax =  -4.57966997657877E-16  4.54379564434545E-02
 cg2d: Sum(rhs),rhsMax =  -6.52256026967279E-16  4.77259345831477E-02
 cg2d: Sum(rhs),rhsMax =  -4.16333634234434E-16  4.99949947407192E-02
 cg2d: Sum(rhs),rhsMax =  -1.16573417585641E-15  5.22073351048866E-02
 cg2d: Sum(rhs),rhsMax =  -2.22044604925031E-16  5.43317160002372E-02
 cg2d: Sum(rhs),rhsMax =  -1.24900090270330E-16  5.63476439505484E-02
 cg2d: Sum(rhs),rhsMax =  -1.94289029309402E-16  5.82478252901776E-02
 cg2d: Sum(rhs),rhsMax =   1.66533453693773E-16  6.00385233032928E-02
 cg2d: Sum(rhs),rhsMax =  -3.05311331771918E-16  6.17377934916124E-02
 cg2d: Sum(rhs),rhsMax =   1.66533453693773E-16  6.33719188831750E-02
 cg2d: Sum(rhs),rhsMax =  -5.55111512312578E-17  6.49706567783974E-02
 cg2d: Sum(rhs),rhsMax =  -5.27355936696949E-16  6.65620861371268E-02
 cg2d: Sum(rhs),rhsMax =  -6.93889390390723E-16  6.81678818718649E-02
 cg2d: Sum(rhs),rhsMax =  -1.24900090270330E-15  6.97997402975090E-02
 cg2d: Sum(rhs),rhsMax =  -1.41553435639707E-15  7.14574674476168E-02
 cg2d: Sum(rhs),rhsMax =  -1.58206781009085E-15  7.31289635194147E-02
 cg2d: Sum(rhs),rhsMax =  -1.66533453693773E-15  7.47920407054669E-02
 cg2d: Sum(rhs),rhsMax =  -1.74860126378462E-15  7.64177411555024E-02
 cg2d: Sum(rhs),rhsMax =  -2.16493489801906E-15  7.79746106013342E-02
 cg2d: Sum(rhs),rhsMax =  -1.66533453693773E-15  7.94332555833646E-02
 cg2d: Sum(rhs),rhsMax =  -1.63757896132211E-15  8.07704834293989E-02
 cg2d: Sum(rhs),rhsMax =  -1.52655665885959E-15  8.19723990199665E-02
 cg2d: Sum(rhs),rhsMax =  -1.02695629777827E-15  8.30360026830601E-02
 cg2d: Sum(rhs),rhsMax =  -6.80011602582908E-16  8.39690756684005E-02
 cg2d: Sum(rhs),rhsMax =  -5.13478148889135E-16  8.47884155050402E-02
 cg2d: Sum(rhs),rhsMax =  -1.94289029309402E-16  8.55167463512555E-02
 cg2d: Sum(rhs),rhsMax =  -1.80411241501588E-16  8.61788332411815E-02
 cg2d: Sum(rhs),rhsMax =  -1.38777878078145E-17  8.67974392961796E-02
 cg2d: Sum(rhs),rhsMax =   6.24500451351651E-16  8.73897659407166E-02
 cg2d: Sum(rhs),rhsMax =   8.04911692853238E-16  8.79649137638420E-02
 cg2d: Sum(rhs),rhsMax =   7.63278329429795E-16  8.85227196936137E-02
 cg2d: Sum(rhs),rhsMax =   6.10622663543836E-16  8.90540992000183E-02
 cg2d: Sum(rhs),rhsMax =   3.74700270810990E-16  8.95427877954063E-02
 cg2d: Sum(rhs),rhsMax =   5.68989300120393E-16  8.99681683609922E-02
 cg2d: Sum(rhs),rhsMax =   7.42461647718073E-16  9.03087171850266E-02
 cg2d: Sum(rhs),rhsMax =   8.53483950180589E-16  9.05455210781511E-02
 cg2d: Sum(rhs),rhsMax =   9.36750677027476E-16  9.06653202817038E-02
 cg2d: Sum(rhs),rhsMax =   5.75928194024300E-16  9.06626164589074E-02
 cg2d: Sum(rhs),rhsMax =   6.86950496486816E-16  9.05405397431568E-02
 cg2d: Sum(rhs),rhsMax =   4.05925293378573E-16  9.03103701417029E-02
 cg2d: Sum(rhs),rhsMax =  -1.04083408558608E-17  8.99898242274081E-02
 cg2d: Sum(rhs),rhsMax =   1.26634813746307E-16  8.96004120364414E-02
 cg2d: Sum(rhs),rhsMax =   1.84748050191530E-16  8.91643088347430E-02
 cg2d: Sum(rhs),rhsMax =   1.21430643318376E-17  8.87012494829737E-02
 cg2d: Sum(rhs),rhsMax =  -9.02056207507940E-17  8.82259316756417E-02
 cg2d: Sum(rhs),rhsMax =  -5.89805981832114E-17  8.77463159036157E-02
 cg2d: Sum(rhs),rhsMax =  -1.80411241501588E-16  8.72630547578718E-02
 cg2d: Sum(rhs),rhsMax =  -2.91433543964104E-16  8.67700998922807E-02
 cg2d: Sum(rhs),rhsMax =  -5.48172618408671E-16  8.62563513524465E-02
 cg2d: Sum(rhs),rhsMax =  -3.92047505570758E-16  8.57080582095699E-02
 cg2d: Sum(rhs),rhsMax =  -8.15320033709099E-17  8.51115729176178E-02
 cg2d: Sum(rhs),rhsMax =  -1.23165366794353E-16  8.44560183072814E-02
 cg2d: Sum(rhs),rhsMax =   3.78169717762944E-16  8.37354506308109E-02
 cg2d: Sum(rhs),rhsMax =   5.03069808033274E-17  8.29501901320851E-02
 cg2d: Sum(rhs),rhsMax =  -9.84455572616838E-17  8.21071284256575E-02
 cg2d: Sum(rhs),rhsMax =  -6.76542155630955E-17  8.12189876975221E-02
 cg2d: Sum(rhs),rhsMax =  -2.69749500514394E-16  8.03026735601985E-02
 cg2d: Sum(rhs),rhsMax =  -3.20923843055709E-16  7.93770039758005E-02
 cg2d: Sum(rhs),rhsMax =  -5.96744875736022E-16  7.84601882554019E-02
 cg2d: Sum(rhs),rhsMax =  -5.56846235788555E-16  7.75674589250678E-02
 cg2d: Sum(rhs),rhsMax =  -2.42861286636753E-17  7.67092227067841E-02
 cg2d: Sum(rhs),rhsMax =   3.43475248243408E-16  7.58900036665366E-02
 cg2d: Sum(rhs),rhsMax =   7.07767178198537E-16  7.51083191866450E-02
 cg2d: Sum(rhs),rhsMax =   4.23272528138341E-16  7.43574803023902E-02
 cg2d: Sum(rhs),rhsMax =   4.37150315946155E-16  7.36271655782089E-02
 cg2d: Sum(rhs),rhsMax =   6.31439345255558E-16  7.29055030912946E-02
 cg2d: Sum(rhs),rhsMax =   7.14706072102445E-16  7.21813242235991E-02
(PID.TID 0000.0001)  MDSREADFIELD: opening global file: walls.bigRidge
(PID.TID 0000.0001) // =======================================================
(PID.TID 0000.0001) // Field Bottom depths (ini_depths) at iteration          1
(PID.TID 0000.0001) // CMIN =         -5.000000000000000E+03
(PID.TID 0000.0001) // CMAX =         -2.000000000000000E+03
(PID.TID 0000.0001) // CINT =          1.111111111111111E+02
(PID.TID 0000.0001) // SYMBOLS (CMIN->CMAX): -abcdefghijklmnopqrstuvwxyz+
(PID.TID 0000.0001) //                  0.0: .
(PID.TID 0000.0001) // RANGE I (Lo:Hi:Step):(  -1:   7:   1)
(PID.TID 0000.0001) // RANGE J (Lo:Hi:Step):(   7:  -1:  -1)
(PID.TID 0000.0001) // RANGE K (Lo:Hi:Step):(   1:   1:   1)
(PID.TID 0000.0001) // =======================================================
(PID.TID 0000.0001) K =   1
(PID.TID 0000.0001) //
(PID.TID 0000.0001) // |--J--|*01234567
(PID.TID 0000.0001) //      7 ----+----
(PID.TID 0000.0001) //      6 .........
(PID.TID 0000.0001) //      5 ----+----
(PID.TID 0000.0001) //      4 ----+----
(PID.TID 0000.0001) //      3 ----+----
(PID.TID 0000.0001) //      2 ----+----
(PID.TID 0000.0001) //      1 .........
(PID.TID 0000.0001) //      0 ----+----
(PID.TID 0000.0001) //     -1 ----+----
(PID.TID 0000.0001) // =======================================================
(PID.TID 0000.0001) // END OF FIELD                                          =
(PID.TID 0000.0001) // =======================================================
(PID.TID 0000.0001) 
(PID.TID 0000.0001) // =======================================================
(PID.TID 0000.0001) // Field Model R_low (ini_masks_etc) at iteration          1
(PID.TID 0000.0001) // CMIN =         -5.000000000000000E+03
(PID.TID 0000.0001) // CMAX =         -2.000000000000000E+03
(PID.TID 0000.0001) // CINT =          1.111111111111111E+02
(PID.TID 0000.0001) // SYMBOLS (CMIN->CMAX): -abcdefghijklmnopqrstuvwxyz+
(PID.TID 0000.0001) //                  0.0: .
(PID.TID 0000.0001) // RANGE I (Lo:Hi:Step):(  -1:   7:   1)
(PID.TID 0000.0001) // RANGE J (Lo:Hi:Step):(   7:  -1:  -1)
(PID.TID 0000.0001) // RANGE K (Lo:Hi:Step):(   1:   1:   1)
(PID.TID 0000.0001) // =======================================================
(PID.TID 0000.0001) K =   1
(PID.TID 0000.0001) //
(PID.TID 0000.0001) // |--J--|*01234567
(PID.TID 0000.0001) //      7 ----+----
(PID.TID 0000.0001) //      6 .........
(PID.TID 0000.0001) //      5 ----+----
(PID.TID 0000.0001) //      4 ----+----
(PID.TID 0000.0001) //      3 ----+----
(PID.TID 0000.0001) //      2 ----+----
(PID.TID 0000.0001) //      1 .........
(PID.TID 0000.0001) //      0 ----+----
(PID.TID 0000.0001) //     -1 ----+----
(PID.TID 0000.0001) // =======================================================
(PID.TID 0000.0001) // END OF FIELD                                          =
(PID.TID 0000.0001) // =======================================================
(PID.TID 0000.0001) 
(PID.TID 0000.0001) // =======================================================
(PID.TID 0000.0001) // Field Model Ro_surf (ini_masks_etc) at iteration          1
(PID.TID 0000.0001) // CMIN =          2.273736754432321E-13
(PID.TID 0000.0001) // CMAX =          2.273736754432321E-13
(PID.TID 0000.0001) // CINT =          0.000000000000000E+00
(PID.TID 0000.0001) // SYMBOLS (CMIN->CMAX): -abcdefghijklmnopqrstuvwxyz+
(PID.TID 0000.0001) //                  0.0: .
(PID.TID 0000.0001) // RANGE I (Lo:Hi:Step):(  -1:   7:   1)
(PID.TID 0000.0001) // RANGE J (Lo:Hi:Step):(   7:  -1:  -1)
(PID.TID 0000.0001) // RANGE K (Lo:Hi:Step):(   1:   1:   1)
(PID.TID 0000.0001) // =======================================================
(PID.TID 0000.0001) // =======================================================
(PID.TID 0000.0001) // END OF FIELD                                          =
(PID.TID 0000.0001) // =======================================================
(PID.TID 0000.0001) 
(PID.TID 0000.0001) // =======================================================
(PID.TID 0000.0001) // Field hFacC at iteration          1
(PID.TID 0000.0001) // CMIN =          1.000000000000000E+00
(PID.TID 0000.0001) // CMAX =          1.000000000000000E+00
(PID.TID 0000.0001) // CINT =          0.000000000000000E+00
(PID.TID 0000.0001) // SYMBOLS (CMIN->CMAX): -abcdefghijklmnopqrstuvwxyz+
(PID.TID 0000.0001) //                  0.0: .
(PID.TID 0000.0001) // RANGE I (Lo:Hi:Step):(  -1:   7:   1)
(PID.TID 0000.0001) // RANGE J (Lo:Hi:Step):(   7:  -1:  -1)
(PID.TID 0000.0001) // RANGE K (Lo:Hi:Step):(   1:   1:   1)
(PID.TID 0000.0001) // =======================================================
(PID.TID 0000.0001) // =======================================================
(PID.TID 0000.0001) // END OF FIELD                                          =
(PID.TID 0000.0001) // =======================================================
(PID.TID 0000.0001) 
(PID.TID 0000.0001) // =======================================================
(PID.TID 0000.0001) // Field hFacW at iteration          1
(PID.TID 0000.0001) // CMIN =          1.000000000000000E+00
(PID.TID 0000.0001) // CMAX =          1.000000000000000E+00
(PID.TID 0000.0001) // CINT =          0.000000000000000E+00
(PID.TID 0000.0001) // SYMBOLS (CMIN->CMAX): -abcdefghijklmnopqrstuvwxyz+
(PID.TID 0000.0001) //                  0.0: .
(PID.TID 0000.0001) // RANGE I (Lo:Hi:Step):(  -1:   7:   1)
(PID.TID 0000.0001) // RANGE J (Lo:Hi:Step):(   7:  -1:  -1)
(PID.TID 0000.0001) // RANGE K (Lo:Hi:Step):(   1:   1:   1)
(PID.TID 0000.0001) // =======================================================
(PID.TID 0000.0001) // =======================================================
(PID.TID 0000.0001) // END OF FIELD                                          =
(PID.TID 0000.0001) // =======================================================
(PID.TID 0000.0001) 
(PID.TID 0000.0001) // =======================================================
(PID.TID 0000.0001) // Field hFacS at iteration          1
(PID.TID 0000.0001) // CMIN =          1.000000000000000E+00
(PID.TID 0000.0001) // CMAX =          1.000000000000000E+00
(PID.TID 0000.0001) // CINT =          0.000000000000000E+00
(PID.TID 0000.0001) // SYMBOLS (CMIN->CMAX): -abcdefghijklmnopqrstuvwxyz+
(PID.TID 0000.0001) //                  0.0: .
(PID.TID 0000.0001) // RANGE I (Lo:Hi:Step):(  -1:   7:   1)
(PID.TID 0000.0001) // RANGE J (Lo:Hi:Step):(   7:  -1:  -1)
(PID.TID 0000.0001) // RANGE K (Lo:Hi:Step):(   1:   1:   1)
(PID.TID 0000.0001) // =======================================================
(PID.TID 0000.0001) // =======================================================
(PID.TID 0000.0001) // END OF FIELD                                          =
(PID.TID 0000.0001) // =======================================================
(PID.TID 0000.0001) 
                     ctrl_depth_ini: ctrl update R_low,
                                     adding the control vector.
(PID.TID 0000.0001)  MDSREADFIELD: opening file: xx_depth.0000000000.001.001.data
(PID.TID 0000.0001) // =======================================================
(PID.TID 0000.0001) // Field Model Ro_surf (update_masks_etc) at iteration          1
(PID.TID 0000.0001) // CMIN =          2.273736754432321E-13
(PID.TID 0000.0001) // CMAX =          2.273736754432321E-13
(PID.TID 0000.0001) // CINT =          0.000000000000000E+00
(PID.TID 0000.0001) // SYMBOLS (CMIN->CMAX): -abcdefghijklmnopqrstuvwxyz+
(PID.TID 0000.0001) //                  0.0: .
(PID.TID 0000.0001) // RANGE I (Lo:Hi:Step):(  -1:   7:   1)
(PID.TID 0000.0001) // RANGE J (Lo:Hi:Step):(   7:  -1:  -1)
(PID.TID 0000.0001) // RANGE K (Lo:Hi:Step):(   1:   1:   1)
(PID.TID 0000.0001) // =======================================================
(PID.TID 0000.0001) // =======================================================
(PID.TID 0000.0001) // END OF FIELD                                          =
(PID.TID 0000.0001) // =======================================================
(PID.TID 0000.0001) 
(PID.TID 0000.0001) // =======================================================
(PID.TID 0000.0001) // Field hFacC at iteration          1
(PID.TID 0000.0001) // CMIN =          1.000000000000000E+00
(PID.TID 0000.0001) // CMAX =          1.000000000000000E+00
(PID.TID 0000.0001) // CINT =          0.000000000000000E+00
(PID.TID 0000.0001) // SYMBOLS (CMIN->CMAX): -abcdefghijklmnopqrstuvwxyz+
(PID.TID 0000.0001) //                  0.0: .
(PID.TID 0000.0001) // RANGE I (Lo:Hi:Step):(  -1:   7:   1)
(PID.TID 0000.0001) // RANGE J (Lo:Hi:Step):(   7:  -1:  -1)
(PID.TID 0000.0001) // RANGE K (Lo:Hi:Step):(   1:   1:   1)
(PID.TID 0000.0001) // =======================================================
(PID.TID 0000.0001) // =======================================================
(PID.TID 0000.0001) // END OF FIELD                                          =
(PID.TID 0000.0001) // =======================================================
(PID.TID 0000.0001) 
(PID.TID 0000.0001) // =======================================================
(PID.TID 0000.0001) // Field hFacW at iteration          1
(PID.TID 0000.0001) // CMIN =          1.000000000000000E+00
(PID.TID 0000.0001) // CMAX =          1.000000000000000E+00
(PID.TID 0000.0001) // CINT =          0.000000000000000E+00
(PID.TID 0000.0001) // SYMBOLS (CMIN->CMAX): -abcdefghijklmnopqrstuvwxyz+
(PID.TID 0000.0001) //                  0.0: .
(PID.TID 0000.0001) // RANGE I (Lo:Hi:Step):(  -1:   7:   1)
(PID.TID 0000.0001) // RANGE J (Lo:Hi:Step):(   7:  -1:  -1)
(PID.TID 0000.0001) // RANGE K (Lo:Hi:Step):(   1:   1:   1)
(PID.TID 0000.0001) // =======================================================
(PID.TID 0000.0001) // =======================================================
(PID.TID 0000.0001) // END OF FIELD                                          =
(PID.TID 0000.0001) // =======================================================
(PID.TID 0000.0001) 
(PID.TID 0000.0001) // =======================================================
(PID.TID 0000.0001) // Field hFacS at iteration          1
(PID.TID 0000.0001) // CMIN =          1.000000000000000E+00
(PID.TID 0000.0001) // CMAX =          1.000000000000000E+00
(PID.TID 0000.0001) // CINT =          0.000000000000000E+00
(PID.TID 0000.0001) // SYMBOLS (CMIN->CMAX): -abcdefghijklmnopqrstuvwxyz+
(PID.TID 0000.0001) //                  0.0: .
(PID.TID 0000.0001) // RANGE I (Lo:Hi:Step):(  -1:   7:   1)
(PID.TID 0000.0001) // RANGE J (Lo:Hi:Step):(   7:  -1:  -1)
(PID.TID 0000.0001) // RANGE K (Lo:Hi:Step):(   1:   1:   1)
(PID.TID 0000.0001) // =======================================================
(PID.TID 0000.0001) // =======================================================
(PID.TID 0000.0001) // END OF FIELD                                          =
(PID.TID 0000.0001) // =======================================================
(PID.TID 0000.0001) 
(PID.TID 0000.0001) // =======================================================
(PID.TID 0000.0001) // Field Initial Temperature at iteration          1
(PID.TID 0000.0001) // CMIN =          4.000000000000000E+00
(PID.TID 0000.0001) // CMAX =          4.000000000000000E+00
(PID.TID 0000.0001) // CINT =          0.000000000000000E+00
(PID.TID 0000.0001) // SYMBOLS (CMIN->CMAX): -abcdefghijklmnopqrstuvwxyz+
(PID.TID 0000.0001) //                  0.0: .
(PID.TID 0000.0001) // RANGE I (Lo:Hi:Step):(   1:   5:   1)
(PID.TID 0000.0001) // RANGE J (Lo:Hi:Step):(   5:   1:  -1)
(PID.TID 0000.0001) // RANGE K (Lo:Hi:Step):(   1:   1:   1)
(PID.TID 0000.0001) // =======================================================
(PID.TID 0000.0001) // =======================================================
(PID.TID 0000.0001) // END OF FIELD                                          =
(PID.TID 0000.0001) // =======================================================
(PID.TID 0000.0001) 
(PID.TID 0000.0001) // =======================================================
(PID.TID 0000.0001) // Field Initial Salinity at iteration          1
(PID.TID 0000.0001) // CMIN =          3.500000000000000E+01
(PID.TID 0000.0001) // CMAX =          3.500000000000000E+01
(PID.TID 0000.0001) // CINT =          0.000000000000000E+00
(PID.TID 0000.0001) // SYMBOLS (CMIN->CMAX): -abcdefghijklmnopqrstuvwxyz+
(PID.TID 0000.0001) //                  0.0: .
(PID.TID 0000.0001) // RANGE I (Lo:Hi:Step):(   1:   5:   1)
(PID.TID 0000.0001) // RANGE J (Lo:Hi:Step):(   5:   1:  -1)
(PID.TID 0000.0001) // RANGE K (Lo:Hi:Step):(   1:   1:   1)
(PID.TID 0000.0001) // =======================================================
(PID.TID 0000.0001) // =======================================================
(PID.TID 0000.0001) // END OF FIELD                                          =
(PID.TID 0000.0001) // =======================================================
(PID.TID 0000.0001) 
(PID.TID 0000.0001) Start initial hydrostatic pressure computation
(PID.TID 0000.0001) Pressure is predetermined for buoyancyRelation OCEANIC
(PID.TID 0000.0001) 
(PID.TID 0000.0001)  MDSREADFIELD: opening file: adxx_depth.0000000000.001.001.data
 ph-pack: packing exp0_cost
(PID.TID 0000.0001)  MDSREADFIELD_GL: opening file: maskCtrlC.001.001.data
(PID.TID 0000.0001)  MDSREADFIELD_GL: opening file: adxx_depth.0000000000.001.001.data
 ph-check entering grdchk_main 
 ph-check fcref =  -0.849803598
 grad-res -------------------------------
 grad-res  proc    #    i    j    k            fc ref        fc + eps        fc - eps
 grad-res  proc    #    i    j    k          adj grad         fd grad      1 - fd/adj
(PID.TID 0000.0001)  MDSREADFIELD: opening file: adxx_depth.0000000000.001.001.data
(PID.TID 0000.0001)  MDSREADFIELD: opening file: xx_depth.0000000000.001.001.data
(PID.TID 0000.0001)  MDSREADFIELD: opening global file: walls.bigRidge
(PID.TID 0000.0001) // =======================================================
(PID.TID 0000.0001) // Field Bottom depths (ini_depths) at iteration          1
(PID.TID 0000.0001) // CMIN =         -5.000000000000000E+03
(PID.TID 0000.0001) // CMAX =         -2.000000000000000E+03
(PID.TID 0000.0001) // CINT =          1.111111111111111E+02
(PID.TID 0000.0001) // SYMBOLS (CMIN->CMAX): -abcdefghijklmnopqrstuvwxyz+
(PID.TID 0000.0001) //                  0.0: .
(PID.TID 0000.0001) // RANGE I (Lo:Hi:Step):(  -1:   7:   1)
(PID.TID 0000.0001) // RANGE J (Lo:Hi:Step):(   7:  -1:  -1)
(PID.TID 0000.0001) // RANGE K (Lo:Hi:Step):(   1:   1:   1)
(PID.TID 0000.0001) // =======================================================
(PID.TID 0000.0001) K =   1
(PID.TID 0000.0001) //
(PID.TID 0000.0001) // |--J--|*01234567
(PID.TID 0000.0001) //      7 ----+----
(PID.TID 0000.0001) //      6 .........
(PID.TID 0000.0001) //      5 ----+----
(PID.TID 0000.0001) //      4 ----+----
(PID.TID 0000.0001) //      3 ----+----
(PID.TID 0000.0001) //      2 ----+----
(PID.TID 0000.0001) //      1 .........
(PID.TID 0000.0001) //      0 ----+----
(PID.TID 0000.0001) //     -1 ----+----
(PID.TID 0000.0001) // =======================================================
(PID.TID 0000.0001) // END OF FIELD                                          =
(PID.TID 0000.0001) // =======================================================
(PID.TID 0000.0001) 
(PID.TID 0000.0001) // =======================================================
(PID.TID 0000.0001) // Field Model R_low (ini_masks_etc) at iteration          1
(PID.TID 0000.0001) // CMIN =         -5.000000000000000E+03
(PID.TID 0000.0001) // CMAX =         -2.000000000000000E+03
(PID.TID 0000.0001) // CINT =          1.111111111111111E+02
(PID.TID 0000.0001) // SYMBOLS (CMIN->CMAX): -abcdefghijklmnopqrstuvwxyz+
(PID.TID 0000.0001) //                  0.0: .
(PID.TID 0000.0001) // RANGE I (Lo:Hi:Step):(  -1:   7:   1)
(PID.TID 0000.0001) // RANGE J (Lo:Hi:Step):(   7:  -1:  -1)
(PID.TID 0000.0001) // RANGE K (Lo:Hi:Step):(   1:   1:   1)
(PID.TID 0000.0001) // =======================================================
(PID.TID 0000.0001) K =   1
(PID.TID 0000.0001) //
(PID.TID 0000.0001) // |--J--|*01234567
(PID.TID 0000.0001) //      7 ----+----
(PID.TID 0000.0001) //      6 .........
(PID.TID 0000.0001) //      5 ----+----
(PID.TID 0000.0001) //      4 ----+----
(PID.TID 0000.0001) //      3 ----+----
(PID.TID 0000.0001) //      2 ----+----
(PID.TID 0000.0001) //      1 .........
(PID.TID 0000.0001) //      0 ----+----
(PID.TID 0000.0001) //     -1 ----+----
(PID.TID 0000.0001) // =======================================================
(PID.TID 0000.0001) // END OF FIELD                                          =
(PID.TID 0000.0001) // =======================================================
(PID.TID 0000.0001) 
(PID.TID 0000.0001) // =======================================================
(PID.TID 0000.0001) // Field Model Ro_surf (ini_masks_etc) at iteration          1
(PID.TID 0000.0001) // CMIN =          2.273736754432321E-13
(PID.TID 0000.0001) // CMAX =          2.273736754432321E-13
(PID.TID 0000.0001) // CINT =          0.000000000000000E+00
(PID.TID 0000.0001) // SYMBOLS (CMIN->CMAX): -abcdefghijklmnopqrstuvwxyz+
(PID.TID 0000.0001) //                  0.0: .
(PID.TID 0000.0001) // RANGE I (Lo:Hi:Step):(  -1:   7:   1)
(PID.TID 0000.0001) // RANGE J (Lo:Hi:Step):(   7:  -1:  -1)
(PID.TID 0000.0001) // RANGE K (Lo:Hi:Step):(   1:   1:   1)
(PID.TID 0000.0001) // =======================================================
(PID.TID 0000.0001) // =======================================================
(PID.TID 0000.0001) // END OF FIELD                                          =
(PID.TID 0000.0001) // =======================================================
(PID.TID 0000.0001) 
(PID.TID 0000.0001) // =======================================================
(PID.TID 0000.0001) // Field hFacC at iteration          1
(PID.TID 0000.0001) // CMIN =          1.000000000000000E+00
(PID.TID 0000.0001) // CMAX =          1.000000000000000E+00
(PID.TID 0000.0001) // CINT =          0.000000000000000E+00
(PID.TID 0000.0001) // SYMBOLS (CMIN->CMAX): -abcdefghijklmnopqrstuvwxyz+
(PID.TID 0000.0001) //                  0.0: .
(PID.TID 0000.0001) // RANGE I (Lo:Hi:Step):(  -1:   7:   1)
(PID.TID 0000.0001) // RANGE J (Lo:Hi:Step):(   7:  -1:  -1)
(PID.TID 0000.0001) // RANGE K (Lo:Hi:Step):(   1:   1:   1)
(PID.TID 0000.0001) // =======================================================
(PID.TID 0000.0001) // =======================================================
(PID.TID 0000.0001) // END OF FIELD                                          =
(PID.TID 0000.0001) // =======================================================
(PID.TID 0000.0001) 
(PID.TID 0000.0001) // =======================================================
(PID.TID 0000.0001) // Field hFacW at iteration          1
(PID.TID 0000.0001) // CMIN =          1.000000000000000E+00
(PID.TID 0000.0001) // CMAX =          1.000000000000000E+00
(PID.TID 0000.0001) // CINT =          0.000000000000000E+00
(PID.TID 0000.0001) // SYMBOLS (CMIN->CMAX): -abcdefghijklmnopqrstuvwxyz+
(PID.TID 0000.0001) //                  0.0: .
(PID.TID 0000.0001) // RANGE I (Lo:Hi:Step):(  -1:   7:   1)
(PID.TID 0000.0001) // RANGE J (Lo:Hi:Step):(   7:  -1:  -1)
(PID.TID 0000.0001) // RANGE K (Lo:Hi:Step):(   1:   1:   1)
(PID.TID 0000.0001) // =======================================================
(PID.TID 0000.0001) // =======================================================
(PID.TID 0000.0001) // END OF FIELD                                          =
(PID.TID 0000.0001) // =======================================================
(PID.TID 0000.0001) 
(PID.TID 0000.0001) // =======================================================
(PID.TID 0000.0001) // Field hFacS at iteration          1
(PID.TID 0000.0001) // CMIN =          1.000000000000000E+00
(PID.TID 0000.0001) // CMAX =          1.000000000000000E+00
(PID.TID 0000.0001) // CINT =          0.000000000000000E+00
(PID.TID 0000.0001) // SYMBOLS (CMIN->CMAX): -abcdefghijklmnopqrstuvwxyz+
(PID.TID 0000.0001) //                  0.0: .
(PID.TID 0000.0001) // RANGE I (Lo:Hi:Step):(  -1:   7:   1)
(PID.TID 0000.0001) // RANGE J (Lo:Hi:Step):(   7:  -1:  -1)
(PID.TID 0000.0001) // RANGE K (Lo:Hi:Step):(   1:   1:   1)
(PID.TID 0000.0001) // =======================================================
(PID.TID 0000.0001) // =======================================================
(PID.TID 0000.0001) // END OF FIELD                                          =
(PID.TID 0000.0001) // =======================================================
(PID.TID 0000.0001) 
(PID.TID 0000.0001) %MON surfExpanfCori_max           =  -1.0735540000000E-04
(PID.TID 0000.0001) %MON surfExpanfCori_min           =  -1.1783060000000E-04
(PID.TID 0000.0001) %MON surfExpanfCori_mean          =  -1.1259300000000E-04
(PID.TID 0000.0001) %MON surfExpanfCori_sd            =   3.7035424771427E-06
(PID.TID 0000.0001) %MON surfExpanfCoriG_max          =  -1.0866480000000E-04
(PID.TID 0000.0001) %MON surfExpanfCoriG_min          =  -1.1914000000000E-04
(PID.TID 0000.0001) %MON surfExpanfCoriG_mean         =  -1.1390240000000E-04
(PID.TID 0000.0001) %MON surfExpanfCoriG_sd           =   3.7035424771427E-06
(PID.TID 0000.0001) %MON surfExpanfCoriCos_max        =   0.0000000000000E+00
(PID.TID 0000.0001) %MON surfExpanfCoriCos_min        =   0.0000000000000E+00
(PID.TID 0000.0001) %MON surfExpanfCoriCos_mean       =   0.0000000000000E+00
(PID.TID 0000.0001) %MON surfExpanfCoriCos_sd         =   0.0000000000000E+00
(PID.TID 0000.0001) INI_CG2D: CG2D normalisation factor =  1.9999999999999996E-04
(PID.TID 0000.0001) 
                     ctrl_depth_ini: ctrl update R_low,
                                     adding the control vector.
(PID.TID 0000.0001)  MDSREADFIELD: opening file: xx_depth.0000000000.001.001.data
(PID.TID 0000.0001) // =======================================================
(PID.TID 0000.0001) // Field Model Ro_surf (update_masks_etc) at iteration          1
(PID.TID 0000.0001) // CMIN =          2.273736754432321E-13
(PID.TID 0000.0001) // CMAX =          2.273736754432321E-13
(PID.TID 0000.0001) // CINT =          0.000000000000000E+00
(PID.TID 0000.0001) // SYMBOLS (CMIN->CMAX): -abcdefghijklmnopqrstuvwxyz+
(PID.TID 0000.0001) //                  0.0: .
(PID.TID 0000.0001) // RANGE I (Lo:Hi:Step):(  -1:   7:   1)
(PID.TID 0000.0001) // RANGE J (Lo:Hi:Step):(   7:  -1:  -1)
(PID.TID 0000.0001) // RANGE K (Lo:Hi:Step):(   1:   1:   1)
(PID.TID 0000.0001) // =======================================================
(PID.TID 0000.0001) // =======================================================
(PID.TID 0000.0001) // END OF FIELD                                          =
(PID.TID 0000.0001) // =======================================================
(PID.TID 0000.0001) 
(PID.TID 0000.0001) // =======================================================
(PID.TID 0000.0001) // Field hFacC at iteration          1
(PID.TID 0000.0001) // CMIN =          1.000000000000000E+00
(PID.TID 0000.0001) // CMAX =          1.000000000000000E+00
(PID.TID 0000.0001) // CINT =          0.000000000000000E+00
(PID.TID 0000.0001) // SYMBOLS (CMIN->CMAX): -abcdefghijklmnopqrstuvwxyz+
(PID.TID 0000.0001) //                  0.0: .
(PID.TID 0000.0001) // RANGE I (Lo:Hi:Step):(  -1:   7:   1)
(PID.TID 0000.0001) // RANGE J (Lo:Hi:Step):(   7:  -1:  -1)
(PID.TID 0000.0001) // RANGE K (Lo:Hi:Step):(   1:   1:   1)
(PID.TID 0000.0001) // =======================================================
(PID.TID 0000.0001) // =======================================================
(PID.TID 0000.0001) // END OF FIELD                                          =
(PID.TID 0000.0001) // =======================================================
(PID.TID 0000.0001) 
(PID.TID 0000.0001) // =======================================================
(PID.TID 0000.0001) // Field hFacW at iteration          1
(PID.TID 0000.0001) // CMIN =          1.000000000000000E+00
(PID.TID 0000.0001) // CMAX =          1.000000000000000E+00
(PID.TID 0000.0001) // CINT =          0.000000000000000E+00
(PID.TID 0000.0001) // SYMBOLS (CMIN->CMAX): -abcdefghijklmnopqrstuvwxyz+
(PID.TID 0000.0001) //                  0.0: .
(PID.TID 0000.0001) // RANGE I (Lo:Hi:Step):(  -1:   7:   1)
(PID.TID 0000.0001) // RANGE J (Lo:Hi:Step):(   7:  -1:  -1)
(PID.TID 0000.0001) // RANGE K (Lo:Hi:Step):(   1:   1:   1)
(PID.TID 0000.0001) // =======================================================
(PID.TID 0000.0001) // =======================================================
(PID.TID 0000.0001) // END OF FIELD                                          =
(PID.TID 0000.0001) // =======================================================
(PID.TID 0000.0001) 
(PID.TID 0000.0001) // =======================================================
(PID.TID 0000.0001) // Field hFacS at iteration          1
(PID.TID 0000.0001) // CMIN =          1.000000000000000E+00
(PID.TID 0000.0001) // CMAX =          1.000000000000000E+00
(PID.TID 0000.0001) // CINT =          0.000000000000000E+00
(PID.TID 0000.0001) // SYMBOLS (CMIN->CMAX): -abcdefghijklmnopqrstuvwxyz+
(PID.TID 0000.0001) //                  0.0: .
(PID.TID 0000.0001) // RANGE I (Lo:Hi:Step):(  -1:   7:   1)
(PID.TID 0000.0001) // RANGE J (Lo:Hi:Step):(   7:  -1:  -1)
(PID.TID 0000.0001) // RANGE K (Lo:Hi:Step):(   1:   1:   1)
(PID.TID 0000.0001) // =======================================================
(PID.TID 0000.0001) // =======================================================
(PID.TID 0000.0001) // END OF FIELD                                          =
(PID.TID 0000.0001) // =======================================================
(PID.TID 0000.0001) 
(PID.TID 0000.0001) // =======================================================
(PID.TID 0000.0001) // Field Initial Temperature at iteration          1
(PID.TID 0000.0001) // CMIN =          4.000000000000000E+00
(PID.TID 0000.0001) // CMAX =          4.000000000000000E+00
(PID.TID 0000.0001) // CINT =          0.000000000000000E+00
(PID.TID 0000.0001) // SYMBOLS (CMIN->CMAX): -abcdefghijklmnopqrstuvwxyz+
(PID.TID 0000.0001) //                  0.0: .
(PID.TID 0000.0001) // RANGE I (Lo:Hi:Step):(   1:   5:   1)
(PID.TID 0000.0001) // RANGE J (Lo:Hi:Step):(   5:   1:  -1)
(PID.TID 0000.0001) // RANGE K (Lo:Hi:Step):(   1:   1:   1)
(PID.TID 0000.0001) // =======================================================
(PID.TID 0000.0001) // =======================================================
(PID.TID 0000.0001) // END OF FIELD                                          =
(PID.TID 0000.0001) // =======================================================
(PID.TID 0000.0001) 
(PID.TID 0000.0001) // =======================================================
(PID.TID 0000.0001) // Field Initial Salinity at iteration          1
(PID.TID 0000.0001) // CMIN =          3.500000000000000E+01
(PID.TID 0000.0001) // CMAX =          3.500000000000000E+01
(PID.TID 0000.0001) // CINT =          0.000000000000000E+00
(PID.TID 0000.0001) // SYMBOLS (CMIN->CMAX): -abcdefghijklmnopqrstuvwxyz+
(PID.TID 0000.0001) //                  0.0: .
(PID.TID 0000.0001) // RANGE I (Lo:Hi:Step):(   1:   5:   1)
(PID.TID 0000.0001) // RANGE J (Lo:Hi:Step):(   5:   1:  -1)
(PID.TID 0000.0001) // RANGE K (Lo:Hi:Step):(   1:   1:   1)
(PID.TID 0000.0001) // =======================================================
(PID.TID 0000.0001) // =======================================================
(PID.TID 0000.0001) // END OF FIELD                                          =
(PID.TID 0000.0001) // =======================================================
(PID.TID 0000.0001) 
(PID.TID 0000.0001) Start initial hydrostatic pressure computation
(PID.TID 0000.0001) Pressure is predetermined for buoyancyRelation OCEANIC
(PID.TID 0000.0001) 
(PID.TID 0000.0001)  MDSREADFIELD: opening global file: windx.sin_y
(PID.TID 0000.0001) // =======================================================
(PID.TID 0000.0001) // Model current state
(PID.TID 0000.0001) // =======================================================
(PID.TID 0000.0001) 
 cg2d: Sum(rhs),rhsMax =   0.00000000000000E+00  0.00000000000000E+00
 cg2d: Sum(rhs),rhsMax =   4.68375338513738E-16  2.62483626325265E-03
 cg2d: Sum(rhs),rhsMax =   1.90819582357449E-16  5.13362634374721E-03
 cg2d: Sum(rhs),rhsMax =   8.76035355368288E-17  7.16168461357152E-03
 cg2d: Sum(rhs),rhsMax =  -3.23525928269675E-16  9.29466759140769E-03
 cg2d: Sum(rhs),rhsMax =  -3.22658566531686E-16  1.15304357233756E-02
 cg2d: Sum(rhs),rhsMax =  -8.35703034551827E-16  1.37809802911252E-02
 cg2d: Sum(rhs),rhsMax =  -1.15879528195251E-15  1.60011248137842E-02
 cg2d: Sum(rhs),rhsMax =  -1.01307850997046E-15  1.82027337812955E-02
 cg2d: Sum(rhs),rhsMax =  -1.23512311489549E-15  2.04493560739975E-02
 cg2d: Sum(rhs),rhsMax =  -1.29063426612674E-15  2.25706027575517E-02
 cg2d: Sum(rhs),rhsMax =  -1.52655665885959E-15  2.45301656969301E-02
 cg2d: Sum(rhs),rhsMax =  -1.40165656858926E-15  2.63097944158293E-02
 cg2d: Sum(rhs),rhsMax =  -1.33226762955019E-15  2.79110496983684E-02
 cg2d: Sum(rhs),rhsMax =  -1.58900670399476E-15  2.93538602141655E-02
 cg2d: Sum(rhs),rhsMax =  -1.70696790036118E-15  3.06720438867567E-02
 cg2d: Sum(rhs),rhsMax =  -1.96370697480575E-15  3.19067816377255E-02
 cg2d: Sum(rhs),rhsMax =  -2.13024042849952E-15  3.30992667422374E-02
 cg2d: Sum(rhs),rhsMax =  -1.83880688453542E-15  3.42837432647643E-02
 cg2d: Sum(rhs),rhsMax =  -2.69229083471600E-15  3.54819650616180E-02
 cg2d: Sum(rhs),rhsMax =  -3.37924133120282E-15  3.66998058324136E-02
 cg2d: Sum(rhs),rhsMax =  -3.10862446895044E-15  3.79264045405417E-02
 cg2d: Sum(rhs),rhsMax =  -3.03229663600746E-15  3.91358858328653E-02
 cg2d: Sum(rhs),rhsMax =  -3.26128013483640E-15  4.02913639245600E-02
 cg2d: Sum(rhs),rhsMax =  -4.76008121808036E-15  4.13506294703267E-02
 cg2d: Sum(rhs),rhsMax =  -3.87190279838023E-15  4.22726606774587E-02
 cg2d: Sum(rhs),rhsMax =  -4.02455846426619E-15  4.30239435420971E-02
 cg2d: Sum(rhs),rhsMax =  -3.87190279838023E-15  4.35835862496060E-02
 cg2d: Sum(rhs),rhsMax =  -3.17801340798951E-15  4.39463978871298E-02
 cg2d: Sum(rhs),rhsMax =  -3.30291349825984E-15  4.41234515112186E-02
 cg2d: Sum(rhs),rhsMax =  -3.02535774210355E-15  4.41400962837692E-02
 cg2d: Sum(rhs),rhsMax =  -3.64985819345520E-15  4.40318242034894E-02
 cg2d: Sum(rhs),rhsMax =  -4.60742555219440E-15  4.38387398293420E-02
 cg2d: Sum(rhs),rhsMax =  -4.78783679369599E-15  4.54379564040373E-02
 cg2d: Sum(rhs),rhsMax =  -4.12170297892089E-15  4.77259345415131E-02
 cg2d: Sum(rhs),rhsMax =  -3.76088049591772E-15  4.99949946969457E-02
 cg2d: Sum(rhs),rhsMax =  -2.85882428840978E-15  5.22073350590641E-02
 cg2d: Sum(rhs),rhsMax =  -2.59514632006130E-15  5.43317159524708E-02
 cg2d: Sum(rhs),rhsMax =  -2.90045765183322E-15  5.63476439009642E-02
 cg2d: Sum(rhs),rhsMax =  -2.55351295663786E-15  5.82478252389280E-02
 cg2d: Sum(rhs),rhsMax =  -2.22044604925031E-15  6.00385232505617E-02
 cg2d: Sum(rhs),rhsMax =  -2.30371277609720E-15  6.17377934376194E-02
 cg2d: Sum(rhs),rhsMax =  -2.80331313717852E-15  6.33719188281771E-02
 cg2d: Sum(rhs),rhsMax =  -2.38697950294409E-15  6.49706567226884E-02
 cg2d: Sum(rhs),rhsMax =  -1.60982338570648E-15  6.65620860810344E-02
 cg2d: Sum(rhs),rhsMax =  -9.71445146547012E-16  6.81678818157466E-02
 cg2d: Sum(rhs),rhsMax =  -7.77156117237610E-16  6.97997402417448E-02
 cg2d: Sum(rhs),rhsMax =  -1.02695629777827E-15  7.14574673926031E-02
 cg2d: Sum(rhs),rhsMax =  -9.99200722162641E-16  7.31289634655570E-02
 cg2d: Sum(rhs),rhsMax =  -7.77156117237610E-16  7.47920406531744E-02
 cg2d: Sum(rhs),rhsMax =  -4.99600361081320E-16  7.64177411051834E-02
 cg2d: Sum(rhs),rhsMax =  -4.44089209850063E-16  7.79746105533939E-02
 cg2d: Sum(rhs),rhsMax =  -6.93889390390723E-16  7.94332555382046E-02
 cg2d: Sum(rhs),rhsMax =  -1.13797860024079E-15  8.07704833874182E-02
 cg2d: Sum(rhs),rhsMax =  -6.66133814775094E-16  8.19723989815637E-02
 cg2d: Sum(rhs),rhsMax =  -4.16333634234434E-16  8.30360026486364E-02
 cg2d: Sum(rhs),rhsMax =   4.16333634234434E-16  8.39690756383615E-02
 cg2d: Sum(rhs),rhsMax =  -2.22044604925031E-16  8.47884154797976E-02
 cg2d: Sum(rhs),rhsMax =  -4.99600361081320E-16  8.55167463312265E-02
 cg2d: Sum(rhs),rhsMax =  -6.93889390390723E-16  8.61788332267871E-02
 cg2d: Sum(rhs),rhsMax =  -6.52256026967279E-16  8.67974392878405E-02
 cg2d: Sum(rhs),rhsMax =  -5.55111512312578E-16  8.73897659388486E-02
 cg2d: Sum(rhs),rhsMax =  -5.55111512312578E-16  8.79649137688498E-02
 cg2d: Sum(rhs),rhsMax =  -7.35522753814166E-16  8.85227197058848E-02
 cg2d: Sum(rhs),rhsMax =  -9.85322934354826E-16  8.90540992199174E-02
 cg2d: Sum(rhs),rhsMax =  -5.27355936696949E-16  8.95427878232707E-02
 cg2d: Sum(rhs),rhsMax =  -6.10622663543836E-16  8.99681683971292E-02
 cg2d: Sum(rhs),rhsMax =  -7.63278329429795E-16  9.03087172297122E-02
 cg2d: Sum(rhs),rhsMax =  -1.04083408558608E-15  9.05455211316305E-02
 cg2d: Sum(rhs),rhsMax =  -5.41233724504764E-16  9.06653203441933E-02
 cg2d: Sum(rhs),rhsMax =  -5.62050406216485E-16  9.06626165305972E-02
 cg2d: Sum(rhs),rhsMax =  -8.88178419700125E-16  9.05405398242141E-02
 cg2d: Sum(rhs),rhsMax =  -5.96744875736022E-16  9.03103702322746E-02
 cg2d: Sum(rhs),rhsMax =  -1.16920362280837E-15  8.99898243276223E-02
 cg2d: Sum(rhs),rhsMax =  -7.61543605953818E-16  8.96004121464080E-02
 cg2d: Sum(rhs),rhsMax =  -1.01405429192569E-15  8.91643089545522E-02
 cg2d: Sum(rhs),rhsMax =  -1.40512601554121E-15  8.87012496126939E-02
 cg2d: Sum(rhs),rhsMax =  -1.41900380334903E-15  8.82259318153157E-02
 cg2d: Sum(rhs),rhsMax =  -1.49533163629201E-15  8.77463160532571E-02
 cg2d: Sum(rhs),rhsMax =  -1.47798440153224E-15  8.72630549174605E-02
 cg2d: Sum(rhs),rhsMax =  -1.51267887105178E-15  8.67701000617602E-02
 cg2d: Sum(rhs),rhsMax =  -1.55084278752327E-15  8.62563515317216E-02
 cg2d: Sum(rhs),rhsMax =  -1.55951640490315E-15  8.57080583985054E-02
 cg2d: Sum(rhs),rhsMax =  -1.73472347597681E-15  8.51115731160407E-02
 cg2d: Sum(rhs),rhsMax =  -1.88044024795886E-15  8.44560185149818E-02
 cg2d: Sum(rhs),rhsMax =  -2.11115847026377E-15  8.37354508475464E-02
 cg2d: Sum(rhs),rhsMax =  -2.18401685625480E-15  8.29501903575847E-02
 cg2d: Sum(rhs),rhsMax =  -1.87046558797199E-15  8.21071286596252E-02
 cg2d: Sum(rhs),rhsMax =  -1.68268177169750E-15  8.12189879396409E-02
 cg2d: Sum(rhs),rhsMax =  -1.52915874407356E-15  8.03026738101334E-02
 cg2d: Sum(rhs),rhsMax =  -1.79370407416002E-15  7.93770042331995E-02
 cg2d: Sum(rhs),rhsMax =  -1.72258041164497E-15  7.84601885198960E-02
 cg2d: Sum(rhs),rhsMax =  -1.25767452008319E-15  7.75674591962710E-02
 cg2d: Sum(rhs),rhsMax =  -8.29197821516914E-16  7.67092229842906E-02
 cg2d: Sum(rhs),rhsMax =  -3.19189119579733E-16  7.58900039499199E-02
 cg2d: Sum(rhs),rhsMax =  -6.45317133063372E-16  7.51083194754552E-02
 cg2d: Sum(rhs),rhsMax =  -7.14706072102445E-16  7.43574805961531E-02
 cg2d: Sum(rhs),rhsMax =  -7.97972798949331E-16  7.36271658764267E-02
 cg2d: Sum(rhs),rhsMax =  -5.34294830600857E-16  7.29055033934462E-02
 cg2d: Sum(rhs),rhsMax =  -5.20417042793042E-16  7.21813245291432E-02
 --> objf_test(bi,bj)   = -0.849803586730354E+00
 --> objf_tracer(bi,bj) =  0.000000000000000E+00
 --> objf_atl(bi,bj)    =  0.000000000000000E+00
  local fc = -0.849803586730354E+00
 global fc = -0.849803586730354E+00
 ph-check fcpertplus =  -0.849803587
(PID.TID 0000.0001)  MDSREADFIELD: opening file: xx_depth.0000000000.001.001.data
 ph-check fcpertminus =  -0.849803598
(PID.TID 0000.0001)  MDSREADFIELD: opening file: xx_depth.0000000000.001.001.data
(PID.TID 0000.0001)  MDSREADFIELD: opening global file: walls.bigRidge
(PID.TID 0000.0001) // =======================================================
(PID.TID 0000.0001) // Field Bottom depths (ini_depths) at iteration          1
(PID.TID 0000.0001) // CMIN =         -5.000000000000000E+03
(PID.TID 0000.0001) // CMAX =         -2.000000000000000E+03
(PID.TID 0000.0001) // CINT =          1.111111111111111E+02
(PID.TID 0000.0001) // SYMBOLS (CMIN->CMAX): -abcdefghijklmnopqrstuvwxyz+
(PID.TID 0000.0001) //                  0.0: .
(PID.TID 0000.0001) // RANGE I (Lo:Hi:Step):(  -1:   7:   1)
(PID.TID 0000.0001) // RANGE J (Lo:Hi:Step):(   7:  -1:  -1)
(PID.TID 0000.0001) // RANGE K (Lo:Hi:Step):(   1:   1:   1)
(PID.TID 0000.0001) // =======================================================
(PID.TID 0000.0001) K =   1
(PID.TID 0000.0001) //
(PID.TID 0000.0001) // |--J--|*01234567
(PID.TID 0000.0001) //      7 ----+----
(PID.TID 0000.0001) //      6 .........
(PID.TID 0000.0001) //      5 ----+----
(PID.TID 0000.0001) //      4 ----+----
(PID.TID 0000.0001) //      3 ----+----
(PID.TID 0000.0001) //      2 ----+----
(PID.TID 0000.0001) //      1 .........
(PID.TID 0000.0001) //      0 ----+----
(PID.TID 0000.0001) //     -1 ----+----
(PID.TID 0000.0001) // =======================================================
(PID.TID 0000.0001) // END OF FIELD                                          =
(PID.TID 0000.0001) // =======================================================
(PID.TID 0000.0001) 
(PID.TID 0000.0001) // =======================================================
(PID.TID 0000.0001) // Field Model R_low (ini_masks_etc) at iteration          1
(PID.TID 0000.0001) // CMIN =         -5.000000000000000E+03
(PID.TID 0000.0001) // CMAX =         -2.000000000000000E+03
(PID.TID 0000.0001) // CINT =          1.111111111111111E+02
(PID.TID 0000.0001) // SYMBOLS (CMIN->CMAX): -abcdefghijklmnopqrstuvwxyz+
(PID.TID 0000.0001) //                  0.0: .
(PID.TID 0000.0001) // RANGE I (Lo:Hi:Step):(  -1:   7:   1)
(PID.TID 0000.0001) // RANGE J (Lo:Hi:Step):(   7:  -1:  -1)
(PID.TID 0000.0001) // RANGE K (Lo:Hi:Step):(   1:   1:   1)
(PID.TID 0000.0001) // =======================================================
(PID.TID 0000.0001) K =   1
(PID.TID 0000.0001) //
(PID.TID 0000.0001) // |--J--|*01234567
(PID.TID 0000.0001) //      7 ----+----
(PID.TID 0000.0001) //      6 .........
(PID.TID 0000.0001) //      5 ----+----
(PID.TID 0000.0001) //      4 ----+----
(PID.TID 0000.0001) //      3 ----+----
(PID.TID 0000.0001) //      2 ----+----
(PID.TID 0000.0001) //      1 .........
(PID.TID 0000.0001) //      0 ----+----
(PID.TID 0000.0001) //     -1 ----+----
(PID.TID 0000.0001) // =======================================================
(PID.TID 0000.0001) // END OF FIELD                                          =
(PID.TID 0000.0001) // =======================================================
(PID.TID 0000.0001) 
(PID.TID 0000.0001) // =======================================================
(PID.TID 0000.0001) // Field Model Ro_surf (ini_masks_etc) at iteration          1
(PID.TID 0000.0001) // CMIN =          2.273736754432321E-13
(PID.TID 0000.0001) // CMAX =          2.273736754432321E-13
(PID.TID 0000.0001) // CINT =          0.000000000000000E+00
(PID.TID 0000.0001) // SYMBOLS (CMIN->CMAX): -abcdefghijklmnopqrstuvwxyz+
(PID.TID 0000.0001) //                  0.0: .
(PID.TID 0000.0001) // RANGE I (Lo:Hi:Step):(  -1:   7:   1)
(PID.TID 0000.0001) // RANGE J (Lo:Hi:Step):(   7:  -1:  -1)
(PID.TID 0000.0001) // RANGE K (Lo:Hi:Step):(   1:   1:   1)
(PID.TID 0000.0001) // =======================================================
(PID.TID 0000.0001) // =======================================================
(PID.TID 0000.0001) // END OF FIELD                                          =
(PID.TID 0000.0001) // =======================================================
(PID.TID 0000.0001) 
(PID.TID 0000.0001) // =======================================================
(PID.TID 0000.0001) // Field hFacC at iteration          1
(PID.TID 0000.0001) // CMIN =          1.000000000000000E+00
(PID.TID 0000.0001) // CMAX =          1.000000000000000E+00
(PID.TID 0000.0001) // CINT =          0.000000000000000E+00
(PID.TID 0000.0001) // SYMBOLS (CMIN->CMAX): -abcdefghijklmnopqrstuvwxyz+
(PID.TID 0000.0001) //                  0.0: .
(PID.TID 0000.0001) // RANGE I (Lo:Hi:Step):(  -1:   7:   1)
(PID.TID 0000.0001) // RANGE J (Lo:Hi:Step):(   7:  -1:  -1)
(PID.TID 0000.0001) // RANGE K (Lo:Hi:Step):(   1:   1:   1)
(PID.TID 0000.0001) // =======================================================
(PID.TID 0000.0001) // =======================================================
(PID.TID 0000.0001) // END OF FIELD                                          =
(PID.TID 0000.0001) // =======================================================
(PID.TID 0000.0001) 
(PID.TID 0000.0001) // =======================================================
(PID.TID 0000.0001) // Field hFacW at iteration          1
(PID.TID 0000.0001) // CMIN =          1.000000000000000E+00
(PID.TID 0000.0001) // CMAX =          1.000000000000000E+00
(PID.TID 0000.0001) // CINT =          0.000000000000000E+00
(PID.TID 0000.0001) // SYMBOLS (CMIN->CMAX): -abcdefghijklmnopqrstuvwxyz+
(PID.TID 0000.0001) //                  0.0: .
(PID.TID 0000.0001) // RANGE I (Lo:Hi:Step):(  -1:   7:   1)
(PID.TID 0000.0001) // RANGE J (Lo:Hi:Step):(   7:  -1:  -1)
(PID.TID 0000.0001) // RANGE K (Lo:Hi:Step):(   1:   1:   1)
(PID.TID 0000.0001) // =======================================================
(PID.TID 0000.0001) // =======================================================
(PID.TID 0000.0001) // END OF FIELD                                          =
(PID.TID 0000.0001) // =======================================================
(PID.TID 0000.0001) 
(PID.TID 0000.0001) // =======================================================
(PID.TID 0000.0001) // Field hFacS at iteration          1
(PID.TID 0000.0001) // CMIN =          1.000000000000000E+00
(PID.TID 0000.0001) // CMAX =          1.000000000000000E+00
(PID.TID 0000.0001) // CINT =          0.000000000000000E+00
(PID.TID 0000.0001) // SYMBOLS (CMIN->CMAX): -abcdefghijklmnopqrstuvwxyz+
(PID.TID 0000.0001) //                  0.0: .
(PID.TID 0000.0001) // RANGE I (Lo:Hi:Step):(  -1:   7:   1)
(PID.TID 0000.0001) // RANGE J (Lo:Hi:Step):(   7:  -1:  -1)
(PID.TID 0000.0001) // RANGE K (Lo:Hi:Step):(   1:   1:   1)
(PID.TID 0000.0001) // =======================================================
(PID.TID 0000.0001) // =======================================================
(PID.TID 0000.0001) // END OF FIELD                                          =
(PID.TID 0000.0001) // =======================================================
(PID.TID 0000.0001) 
(PID.TID 0000.0001) %MON surfExpanfCori_max           =  -1.0735540000000E-04
(PID.TID 0000.0001) %MON surfExpanfCori_min           =  -1.1783060000000E-04
(PID.TID 0000.0001) %MON surfExpanfCori_mean          =  -1.1259300000000E-04
(PID.TID 0000.0001) %MON surfExpanfCori_sd            =   3.7035424771427E-06
(PID.TID 0000.0001) %MON surfExpanfCoriG_max          =  -1.0866480000000E-04
(PID.TID 0000.0001) %MON surfExpanfCoriG_min          =  -1.1914000000000E-04
(PID.TID 0000.0001) %MON surfExpanfCoriG_mean         =  -1.1390240000000E-04
(PID.TID 0000.0001) %MON surfExpanfCoriG_sd           =   3.7035424771427E-06
(PID.TID 0000.0001) %MON surfExpanfCoriCos_max        =   0.0000000000000E+00
(PID.TID 0000.0001) %MON surfExpanfCoriCos_min        =   0.0000000000000E+00
(PID.TID 0000.0001) %MON surfExpanfCoriCos_mean       =   0.0000000000000E+00
(PID.TID 0000.0001) %MON surfExpanfCoriCos_sd         =   0.0000000000000E+00
(PID.TID 0000.0001) INI_CG2D: CG2D normalisation factor =  1.9999999999999996E-04
(PID.TID 0000.0001) 
                     ctrl_depth_ini: ctrl update R_low,
                                     adding the control vector.
(PID.TID 0000.0001)  MDSREADFIELD: opening file: xx_depth.0000000000.001.001.data
(PID.TID 0000.0001) // =======================================================
(PID.TID 0000.0001) // Field Model Ro_surf (update_masks_etc) at iteration          1
(PID.TID 0000.0001) // CMIN =          2.273736754432321E-13
(PID.TID 0000.0001) // CMAX =          2.273736754432321E-13
(PID.TID 0000.0001) // CINT =          0.000000000000000E+00
(PID.TID 0000.0001) // SYMBOLS (CMIN->CMAX): -abcdefghijklmnopqrstuvwxyz+
(PID.TID 0000.0001) //                  0.0: .
(PID.TID 0000.0001) // RANGE I (Lo:Hi:Step):(  -1:   7:   1)
(PID.TID 0000.0001) // RANGE J (Lo:Hi:Step):(   7:  -1:  -1)
(PID.TID 0000.0001) // RANGE K (Lo:Hi:Step):(   1:   1:   1)
(PID.TID 0000.0001) // =======================================================
(PID.TID 0000.0001) // =======================================================
(PID.TID 0000.0001) // END OF FIELD                                          =
(PID.TID 0000.0001) // =======================================================
(PID.TID 0000.0001) 
(PID.TID 0000.0001) // =======================================================
(PID.TID 0000.0001) // Field hFacC at iteration          1
(PID.TID 0000.0001) // CMIN =          1.000000000000000E+00
(PID.TID 0000.0001) // CMAX =          1.000000000000000E+00
(PID.TID 0000.0001) // CINT =          0.000000000000000E+00
(PID.TID 0000.0001) // SYMBOLS (CMIN->CMAX): -abcdefghijklmnopqrstuvwxyz+
(PID.TID 0000.0001) //                  0.0: .
(PID.TID 0000.0001) // RANGE I (Lo:Hi:Step):(  -1:   7:   1)
(PID.TID 0000.0001) // RANGE J (Lo:Hi:Step):(   7:  -1:  -1)
(PID.TID 0000.0001) // RANGE K (Lo:Hi:Step):(   1:   1:   1)
(PID.TID 0000.0001) // =======================================================
(PID.TID 0000.0001) // =======================================================
(PID.TID 0000.0001) // END OF FIELD                                          =
(PID.TID 0000.0001) // =======================================================
(PID.TID 0000.0001) 
(PID.TID 0000.0001) // =======================================================
(PID.TID 0000.0001) // Field hFacW at iteration          1
(PID.TID 0000.0001) // CMIN =          1.000000000000000E+00
(PID.TID 0000.0001) // CMAX =          1.000000000000000E+00
(PID.TID 0000.0001) // CINT =          0.000000000000000E+00
(PID.TID 0000.0001) // SYMBOLS (CMIN->CMAX): -abcdefghijklmnopqrstuvwxyz+
(PID.TID 0000.0001) //                  0.0: .
(PID.TID 0000.0001) // RANGE I (Lo:Hi:Step):(  -1:   7:   1)
(PID.TID 0000.0001) // RANGE J (Lo:Hi:Step):(   7:  -1:  -1)
(PID.TID 0000.0001) // RANGE K (Lo:Hi:Step):(   1:   1:   1)
(PID.TID 0000.0001) // =======================================================
(PID.TID 0000.0001) // =======================================================
(PID.TID 0000.0001) // END OF FIELD                                          =
(PID.TID 0000.0001) // =======================================================
(PID.TID 0000.0001) 
(PID.TID 0000.0001) // =======================================================
(PID.TID 0000.0001) // Field hFacS at iteration          1
(PID.TID 0000.0001) // CMIN =          1.000000000000000E+00
(PID.TID 0000.0001) // CMAX =          1.000000000000000E+00
(PID.TID 0000.0001) // CINT =          0.000000000000000E+00
(PID.TID 0000.0001) // SYMBOLS (CMIN->CMAX): -abcdefghijklmnopqrstuvwxyz+
(PID.TID 0000.0001) //                  0.0: .
(PID.TID 0000.0001) // RANGE I (Lo:Hi:Step):(  -1:   7:   1)
(PID.TID 0000.0001) // RANGE J (Lo:Hi:Step):(   7:  -1:  -1)
(PID.TID 0000.0001) // RANGE K (Lo:Hi:Step):(   1:   1:   1)
(PID.TID 0000.0001) // =======================================================
(PID.TID 0000.0001) // =======================================================
(PID.TID 0000.0001) // END OF FIELD                                          =
(PID.TID 0000.0001) // =======================================================
(PID.TID 0000.0001) 
(PID.TID 0000.0001) // =======================================================
(PID.TID 0000.0001) // Field Initial Temperature at iteration          1
(PID.TID 0000.0001) // CMIN =          4.000000000000000E+00
(PID.TID 0000.0001) // CMAX =          4.000000000000000E+00
(PID.TID 0000.0001) // CINT =          0.000000000000000E+00
(PID.TID 0000.0001) // SYMBOLS (CMIN->CMAX): -abcdefghijklmnopqrstuvwxyz+
(PID.TID 0000.0001) //                  0.0: .
(PID.TID 0000.0001) // RANGE I (Lo:Hi:Step):(   1:   5:   1)
(PID.TID 0000.0001) // RANGE J (Lo:Hi:Step):(   5:   1:  -1)
(PID.TID 0000.0001) // RANGE K (Lo:Hi:Step):(   1:   1:   1)
(PID.TID 0000.0001) // =======================================================
(PID.TID 0000.0001) // =======================================================
(PID.TID 0000.0001) // END OF FIELD                                          =
(PID.TID 0000.0001) // =======================================================
(PID.TID 0000.0001) 
(PID.TID 0000.0001) // =======================================================
(PID.TID 0000.0001) // Field Initial Salinity at iteration          1
(PID.TID 0000.0001) // CMIN =          3.500000000000000E+01
(PID.TID 0000.0001) // CMAX =          3.500000000000000E+01
(PID.TID 0000.0001) // CINT =          0.000000000000000E+00
(PID.TID 0000.0001) // SYMBOLS (CMIN->CMAX): -abcdefghijklmnopqrstuvwxyz+
(PID.TID 0000.0001) //                  0.0: .
(PID.TID 0000.0001) // RANGE I (Lo:Hi:Step):(   1:   5:   1)
(PID.TID 0000.0001) // RANGE J (Lo:Hi:Step):(   5:   1:  -1)
(PID.TID 0000.0001) // RANGE K (Lo:Hi:Step):(   1:   1:   1)
(PID.TID 0000.0001) // =======================================================
(PID.TID 0000.0001) // =======================================================
(PID.TID 0000.0001) // END OF FIELD                                          =
(PID.TID 0000.0001) // =======================================================
(PID.TID 0000.0001) 
(PID.TID 0000.0001) Start initial hydrostatic pressure computation
(PID.TID 0000.0001) Pressure is predetermined for buoyancyRelation OCEANIC
(PID.TID 0000.0001) 
(PID.TID 0000.0001)  MDSREADFIELD: opening global file: windx.sin_y
(PID.TID 0000.0001) // =======================================================
(PID.TID 0000.0001) // Model current state
(PID.TID 0000.0001) // =======================================================
(PID.TID 0000.0001) 
 cg2d: Sum(rhs),rhsMax =   0.00000000000000E+00  0.00000000000000E+00
 cg2d: Sum(rhs),rhsMax =   4.68375338513738E-16  2.62483626325265E-03
 cg2d: Sum(rhs),rhsMax =   3.24393290007663E-16  5.13362632346920E-03
 cg2d: Sum(rhs),rhsMax =   2.26815094483968E-16  7.16168457204462E-03
 cg2d: Sum(rhs),rhsMax =   5.36029554076833E-16  9.29466752831258E-03
 cg2d: Sum(rhs),rhsMax =   1.76941794549634E-16  1.15304356361266E-02
 cg2d: Sum(rhs),rhsMax =  -3.64725610824124E-16  1.37809801796488E-02
 cg2d: Sum(rhs),rhsMax =   6.93889390390723E-18  1.60011246800735E-02
 cg2d: Sum(rhs),rhsMax =  -2.49800180540660E-16  1.82027338011496E-02
 cg2d: Sum(rhs),rhsMax =  -9.71445146547012E-17  2.04493561003126E-02
 cg2d: Sum(rhs),rhsMax =  -5.41233724504764E-16  2.25706027902679E-02
 cg2d: Sum(rhs),rhsMax =  -1.24900090270330E-16  2.45301657354739E-02
 cg2d: Sum(rhs),rhsMax =  -3.05311331771918E-16  2.63097944591560E-02
 cg2d: Sum(rhs),rhsMax =  -3.05311331771918E-16  2.79110497450601E-02
 cg2d: Sum(rhs),rhsMax =  -1.38777878078145E-16  2.93538602625673E-02
 cg2d: Sum(rhs),rhsMax =   1.24900090270330E-16  3.06720439351278E-02
 cg2d: Sum(rhs),rhsMax =  -2.77555756156289E-17  3.19067816843816E-02
 cg2d: Sum(rhs),rhsMax =  -4.02455846426619E-16  3.30992667856624E-02
 cg2d: Sum(rhs),rhsMax =  -3.19189119579733E-16  3.42837433036759E-02
 cg2d: Sum(rhs),rhsMax =   6.24500451351651E-17  3.54819650949772E-02
 cg2d: Sum(rhs),rhsMax =   5.06539254985228E-16  3.66998058593808E-02
 cg2d: Sum(rhs),rhsMax =   6.73072708679001E-16  3.79264045603862E-02
 cg2d: Sum(rhs),rhsMax =   1.17961196366423E-16  3.91358858448468E-02
 cg2d: Sum(rhs),rhsMax =  -6.80011602582908E-16  4.02913639278003E-02
 cg2d: Sum(rhs),rhsMax =  -1.55431223447522E-15  4.13506294636952E-02
 cg2d: Sum(rhs),rhsMax =  -1.42941214420489E-15  4.22726606594896E-02
 cg2d: Sum(rhs),rhsMax =  -1.66533453693773E-15  4.30239435109517E-02
 cg2d: Sum(rhs),rhsMax =  -1.22124532708767E-15  4.35835862030866E-02
 cg2d: Sum(rhs),rhsMax =  -1.30451205393456E-15  4.39463978227446E-02
 cg2d: Sum(rhs),rhsMax =  -1.04083408558608E-15  4.41234514262858E-02
 cg2d: Sum(rhs),rhsMax =  -1.12410081243297E-15  4.41400961755476E-02
 cg2d: Sum(rhs),rhsMax =  -2.49800180540660E-16  4.40318240693146E-02
 cg2d: Sum(rhs),rhsMax =   2.35922392732846E-16  4.38387396667499E-02
 cg2d: Sum(rhs),rhsMax =   8.04911692853238E-16  4.54379564828717E-02
 cg2d: Sum(rhs),rhsMax =   1.22124532708767E-15  4.77259346247822E-02
 cg2d: Sum(rhs),rhsMax =   4.44089209850063E-16  4.99949947844926E-02
 cg2d: Sum(rhs),rhsMax =   1.52655665885959E-16  5.22073351507092E-02
 cg2d: Sum(rhs),rhsMax =  -2.49800180540660E-16  5.43317160480036E-02
 cg2d: Sum(rhs),rhsMax =  -9.57567358739198E-16  5.63476440001326E-02
 cg2d: Sum(rhs),rhsMax =  -6.66133814775094E-16  5.82478253414273E-02
 cg2d: Sum(rhs),rhsMax =  -1.41553435639707E-15  6.00385233560238E-02
 cg2d: Sum(rhs),rhsMax =  -1.27675647831893E-15  6.17377935456053E-02
 cg2d: Sum(rhs),rhsMax =  -6.66133814775094E-16  6.33719189381729E-02
 cg2d: Sum(rhs),rhsMax =  -3.60822483003176E-16  6.49706568341065E-02
 cg2d: Sum(rhs),rhsMax =  -8.88178419700125E-16  6.65620861932191E-02
 cg2d: Sum(rhs),rhsMax =  -4.99600361081320E-16  6.81678819279832E-02
 cg2d: Sum(rhs),rhsMax =  -5.55111512312578E-16  6.97997403532732E-02
 cg2d: Sum(rhs),rhsMax =  -4.44089209850063E-16  7.14574675026306E-02
 cg2d: Sum(rhs),rhsMax =  -7.49400541621981E-16  7.31289635732724E-02
 cg2d: Sum(rhs),rhsMax =  -5.27355936696949E-16  7.47920407577595E-02
 cg2d: Sum(rhs),rhsMax =  -1.24900090270330E-15  7.64177412058213E-02
 cg2d: Sum(rhs),rhsMax =  -1.16573417585641E-15  7.79746106492745E-02
 cg2d: Sum(rhs),rhsMax =  -8.32667268468867E-16  7.94332556285247E-02
 cg2d: Sum(rhs),rhsMax =  -3.60822483003176E-16  8.07704834713797E-02
 cg2d: Sum(rhs),rhsMax =  -4.16333634234434E-16  8.19723990583692E-02
 cg2d: Sum(rhs),rhsMax =  -2.77555756156289E-16  8.30360027174838E-02
 cg2d: Sum(rhs),rhsMax =   4.16333634234434E-17  8.39690756984393E-02
 cg2d: Sum(rhs),rhsMax =  -6.93889390390723E-17  8.47884155302828E-02
 cg2d: Sum(rhs),rhsMax =  -3.19189119579733E-16  8.55167463712845E-02
 cg2d: Sum(rhs),rhsMax =  -3.88578058618805E-16  8.61788332555759E-02
 cg2d: Sum(rhs),rhsMax =  -4.57966997657877E-16  8.67974393045186E-02
 cg2d: Sum(rhs),rhsMax =  -4.57966997657877E-16  8.73897659425846E-02
 cg2d: Sum(rhs),rhsMax =  -3.88578058618805E-16  8.79649137588342E-02
 cg2d: Sum(rhs),rhsMax =  -3.46944695195361E-16  8.85227196813426E-02
 cg2d: Sum(rhs),rhsMax =  -4.02455846426619E-16  8.90540991801193E-02
 cg2d: Sum(rhs),rhsMax =  -4.02455846426619E-16  8.95427877675419E-02
 cg2d: Sum(rhs),rhsMax =  -8.32667268468867E-16  8.99681683248550E-02
 cg2d: Sum(rhs),rhsMax =  -1.04083408558608E-15  9.03087171403409E-02
 cg2d: Sum(rhs),rhsMax =  -1.18655085756814E-15  9.05455210246717E-02
 cg2d: Sum(rhs),rhsMax =  -8.60422844084496E-16  9.06653202192143E-02
 cg2d: Sum(rhs),rhsMax =  -7.97972798949331E-16  9.06626163872177E-02
 cg2d: Sum(rhs),rhsMax =  -4.78783679369599E-16  9.05405396620994E-02
 cg2d: Sum(rhs),rhsMax =  -2.87964097012150E-16  9.03103700511309E-02
 cg2d: Sum(rhs),rhsMax =  -5.68989300120393E-16  8.99898241271936E-02
 cg2d: Sum(rhs),rhsMax =  -5.70724023596370E-16  8.96004119264747E-02
 cg2d: Sum(rhs),rhsMax =  -5.69639821423884E-16  8.91643087149338E-02
 cg2d: Sum(rhs),rhsMax =  -5.98479599211998E-16  8.87012493532536E-02
 cg2d: Sum(rhs),rhsMax =   7.28583859910259E-17  8.82259315359677E-02
 cg2d: Sum(rhs),rhsMax =   3.46944695195361E-17  8.77463157539744E-02
 cg2d: Sum(rhs),rhsMax =  -1.76941794549634E-16  8.72630545982831E-02
 cg2d: Sum(rhs),rhsMax =   1.14491749414469E-16  8.67700997228013E-02
 cg2d: Sum(rhs),rhsMax =   4.47558656802016E-16  8.62563511731714E-02
 cg2d: Sum(rhs),rhsMax =   7.85829734617494E-16  8.57080580206343E-02
 cg2d: Sum(rhs),rhsMax =   4.73579508941668E-16  8.51115727191950E-02
 cg2d: Sum(rhs),rhsMax =  -1.75207071073658E-16  8.44560180995810E-02
 cg2d: Sum(rhs),rhsMax =  -2.46330733588707E-16  8.37354504140754E-02
 cg2d: Sum(rhs),rhsMax =  -6.41847686111419E-17  8.29501899065857E-02
 cg2d: Sum(rhs),rhsMax =  -2.81892564846231E-16  8.21071281916899E-02
 cg2d: Sum(rhs),rhsMax =  -3.24393290007663E-16  8.12189874554032E-02
 cg2d: Sum(rhs),rhsMax =  -4.99600361081320E-16  8.03026733102634E-02
 cg2d: Sum(rhs),rhsMax =  -4.25007251614318E-16  7.93770037184016E-02
 cg2d: Sum(rhs),rhsMax =  -9.54097911787244E-16  7.84601879909077E-02
 cg2d: Sum(rhs),rhsMax =  -1.07899800205757E-15  7.75674586538646E-02
 cg2d: Sum(rhs),rhsMax =  -8.32667268468867E-16  7.67092224292774E-02
 cg2d: Sum(rhs),rhsMax =  -9.19403442267708E-16  7.58900033831535E-02
 cg2d: Sum(rhs),rhsMax =  -8.91647866652079E-16  7.51083188978350E-02
 cg2d: Sum(rhs),rhsMax =  -7.00828284294630E-16  7.43574800086271E-02
 cg2d: Sum(rhs),rhsMax =  -7.77156117237610E-16  7.36271652799911E-02
 cg2d: Sum(rhs),rhsMax =   2.77555756156289E-17  7.29055027891430E-02
 cg2d: Sum(rhs),rhsMax =  -5.55111512312578E-17  7.21813239180549E-02
 --> objf_test(bi,bj)   = -0.849803609157460E+00
 --> objf_tracer(bi,bj) =  0.000000000000000E+00
 --> objf_atl(bi,bj)    =  0.000000000000000E+00
  local fc = -0.849803609157460E+00
 global fc = -0.849803609157460E+00
(PID.TID 0000.0001)  MDSREADFIELD: opening file: xx_depth.0000000000.001.001.data
 grad-res -------------------------------
 grad-res     0    1    1    2    1   -.849803598E+00 -.849803587E+00 -.849803609E+00
 grad-res     0    1    1    1   20   0.112135970E-03 0.112135528E-03 0.394808400E-05
(PID.TID 0000.0001)       precision_grdchk_result ADM    -8.49803597943908E-01     1.12135970252429E-04
 ph-grd  ierr ---------------------------
 ph-grd  ierr =  0, icomp =  1, ichknum =  1
(PID.TID 0000.0001)  MDSREADFIELD: opening file: adxx_depth.0000000000.001.001.data
(PID.TID 0000.0001)  MDSREADFIELD: opening file: xx_depth.0000000000.001.001.data
(PID.TID 0000.0001)  MDSREADFIELD: opening global file: walls.bigRidge
(PID.TID 0000.0001) // =======================================================
(PID.TID 0000.0001) // Field Bottom depths (ini_depths) at iteration          1
(PID.TID 0000.0001) // CMIN =         -5.000000000000000E+03
(PID.TID 0000.0001) // CMAX =         -2.000000000000000E+03
(PID.TID 0000.0001) // CINT =          1.111111111111111E+02
(PID.TID 0000.0001) // SYMBOLS (CMIN->CMAX): -abcdefghijklmnopqrstuvwxyz+
(PID.TID 0000.0001) //                  0.0: .
(PID.TID 0000.0001) // RANGE I (Lo:Hi:Step):(  -1:   7:   1)
(PID.TID 0000.0001) // RANGE J (Lo:Hi:Step):(   7:  -1:  -1)
(PID.TID 0000.0001) // RANGE K (Lo:Hi:Step):(   1:   1:   1)
(PID.TID 0000.0001) // =======================================================
(PID.TID 0000.0001) K =   1
(PID.TID 0000.0001) //
(PID.TID 0000.0001) // |--J--|*01234567
(PID.TID 0000.0001) //      7 ----+----
(PID.TID 0000.0001) //      6 .........
(PID.TID 0000.0001) //      5 ----+----
(PID.TID 0000.0001) //      4 ----+----
(PID.TID 0000.0001) //      3 ----+----
(PID.TID 0000.0001) //      2 ----+----
(PID.TID 0000.0001) //      1 .........
(PID.TID 0000.0001) //      0 ----+----
(PID.TID 0000.0001) //     -1 ----+----
(PID.TID 0000.0001) // =======================================================
(PID.TID 0000.0001) // END OF FIELD                                          =
(PID.TID 0000.0001) // =======================================================
(PID.TID 0000.0001) 
(PID.TID 0000.0001) // =======================================================
(PID.TID 0000.0001) // Field Model R_low (ini_masks_etc) at iteration          1
(PID.TID 0000.0001) // CMIN =         -5.000000000000000E+03
(PID.TID 0000.0001) // CMAX =         -2.000000000000000E+03
(PID.TID 0000.0001) // CINT =          1.111111111111111E+02
(PID.TID 0000.0001) // SYMBOLS (CMIN->CMAX): -abcdefghijklmnopqrstuvwxyz+
(PID.TID 0000.0001) //                  0.0: .
(PID.TID 0000.0001) // RANGE I (Lo:Hi:Step):(  -1:   7:   1)
(PID.TID 0000.0001) // RANGE J (Lo:Hi:Step):(   7:  -1:  -1)
(PID.TID 0000.0001) // RANGE K (Lo:Hi:Step):(   1:   1:   1)
(PID.TID 0000.0001) // =======================================================
(PID.TID 0000.0001) K =   1
(PID.TID 0000.0001) //
(PID.TID 0000.0001) // |--J--|*01234567
(PID.TID 0000.0001) //      7 ----+----
(PID.TID 0000.0001) //      6 .........
(PID.TID 0000.0001) //      5 ----+----
(PID.TID 0000.0001) //      4 ----+----
(PID.TID 0000.0001) //      3 ----+----
(PID.TID 0000.0001) //      2 ----+----
(PID.TID 0000.0001) //      1 .........
(PID.TID 0000.0001) //      0 ----+----
(PID.TID 0000.0001) //     -1 ----+----
(PID.TID 0000.0001) // =======================================================
(PID.TID 0000.0001) // END OF FIELD                                          =
(PID.TID 0000.0001) // =======================================================
(PID.TID 0000.0001) 
(PID.TID 0000.0001) // =======================================================
(PID.TID 0000.0001) // Field Model Ro_surf (ini_masks_etc) at iteration          1
(PID.TID 0000.0001) // CMIN =          2.273736754432321E-13
(PID.TID 0000.0001) // CMAX =          2.273736754432321E-13
(PID.TID 0000.0001) // CINT =          0.000000000000000E+00
(PID.TID 0000.0001) // SYMBOLS (CMIN->CMAX): -abcdefghijklmnopqrstuvwxyz+
(PID.TID 0000.0001) //                  0.0: .
(PID.TID 0000.0001) // RANGE I (Lo:Hi:Step):(  -1:   7:   1)
(PID.TID 0000.0001) // RANGE J (Lo:Hi:Step):(   7:  -1:  -1)
(PID.TID 0000.0001) // RANGE K (Lo:Hi:Step):(   1:   1:   1)
(PID.TID 0000.0001) // =======================================================
(PID.TID 0000.0001) // =======================================================
(PID.TID 0000.0001) // END OF FIELD                                          =
(PID.TID 0000.0001) // =======================================================
(PID.TID 0000.0001) 
(PID.TID 0000.0001) // =======================================================
(PID.TID 0000.0001) // Field hFacC at iteration          1
(PID.TID 0000.0001) // CMIN =          1.000000000000000E+00
(PID.TID 0000.0001) // CMAX =          1.000000000000000E+00
(PID.TID 0000.0001) // CINT =          0.000000000000000E+00
(PID.TID 0000.0001) // SYMBOLS (CMIN->CMAX): -abcdefghijklmnopqrstuvwxyz+
(PID.TID 0000.0001) //                  0.0: .
(PID.TID 0000.0001) // RANGE I (Lo:Hi:Step):(  -1:   7:   1)
(PID.TID 0000.0001) // RANGE J (Lo:Hi:Step):(   7:  -1:  -1)
(PID.TID 0000.0001) // RANGE K (Lo:Hi:Step):(   1:   1:   1)
(PID.TID 0000.0001) // =======================================================
(PID.TID 0000.0001) // =======================================================
(PID.TID 0000.0001) // END OF FIELD                                          =
(PID.TID 0000.0001) // =======================================================
(PID.TID 0000.0001) 
(PID.TID 0000.0001) // =======================================================
(PID.TID 0000.0001) // Field hFacW at iteration          1
(PID.TID 0000.0001) // CMIN =          1.000000000000000E+00
(PID.TID 0000.0001) // CMAX =          1.000000000000000E+00
(PID.TID 0000.0001) // CINT =          0.000000000000000E+00
(PID.TID 0000.0001) // SYMBOLS (CMIN->CMAX): -abcdefghijklmnopqrstuvwxyz+
(PID.TID 0000.0001) //                  0.0: .
(PID.TID 0000.0001) // RANGE I (Lo:Hi:Step):(  -1:   7:   1)
(PID.TID 0000.0001) // RANGE J (Lo:Hi:Step):(   7:  -1:  -1)
(PID.TID 0000.0001) // RANGE K (Lo:Hi:Step):(   1:   1:   1)
(PID.TID 0000.0001) // =======================================================
(PID.TID 0000.0001) // =======================================================
(PID.TID 0000.0001) // END OF FIELD                                          =
(PID.TID 0000.0001) // =======================================================
(PID.TID 0000.0001) 
(PID.TID 0000.0001) // =======================================================
(PID.TID 0000.0001) // Field hFacS at iteration          1
(PID.TID 0000.0001) // CMIN =          1.000000000000000E+00
(PID.TID 0000.0001) // CMAX =          1.000000000000000E+00
(PID.TID 0000.0001) // CINT =          0.000000000000000E+00
(PID.TID 0000.0001) // SYMBOLS (CMIN->CMAX): -abcdefghijklmnopqrstuvwxyz+
(PID.TID 0000.0001) //                  0.0: .
(PID.TID 0000.0001) // RANGE I (Lo:Hi:Step):(  -1:   7:   1)
(PID.TID 0000.0001) // RANGE J (Lo:Hi:Step):(   7:  -1:  -1)
(PID.TID 0000.0001) // RANGE K (Lo:Hi:Step):(   1:   1:   1)
(PID.TID 0000.0001) // =======================================================
(PID.TID 0000.0001) // =======================================================
(PID.TID 0000.0001) // END OF FIELD                                          =
(PID.TID 0000.0001) // =======================================================
(PID.TID 0000.0001) 
(PID.TID 0000.0001) %MON surfExpanfCori_max           =  -1.0735540000000E-04
(PID.TID 0000.0001) %MON surfExpanfCori_min           =  -1.1783060000000E-04
(PID.TID 0000.0001) %MON surfExpanfCori_mean          =  -1.1259300000000E-04
(PID.TID 0000.0001) %MON surfExpanfCori_sd            =   3.7035424771427E-06
(PID.TID 0000.0001) %MON surfExpanfCoriG_max          =  -1.0866480000000E-04
(PID.TID 0000.0001) %MON surfExpanfCoriG_min          =  -1.1914000000000E-04
(PID.TID 0000.0001) %MON surfExpanfCoriG_mean         =  -1.1390240000000E-04
(PID.TID 0000.0001) %MON surfExpanfCoriG_sd           =   3.7035424771427E-06
(PID.TID 0000.0001) %MON surfExpanfCoriCos_max        =   0.0000000000000E+00
(PID.TID 0000.0001) %MON surfExpanfCoriCos_min        =   0.0000000000000E+00
(PID.TID 0000.0001) %MON surfExpanfCoriCos_mean       =   0.0000000000000E+00
(PID.TID 0000.0001) %MON surfExpanfCoriCos_sd         =   0.0000000000000E+00
(PID.TID 0000.0001) INI_CG2D: CG2D normalisation factor =  1.9999999999999996E-04
(PID.TID 0000.0001) 
                     ctrl_depth_ini: ctrl update R_low,
                                     adding the control vector.
(PID.TID 0000.0001)  MDSREADFIELD: opening file: xx_depth.0000000000.001.001.data
(PID.TID 0000.0001) // =======================================================
(PID.TID 0000.0001) // Field Model Ro_surf (update_masks_etc) at iteration          1
(PID.TID 0000.0001) // CMIN =          2.273736754432321E-13
(PID.TID 0000.0001) // CMAX =          2.273736754432321E-13
(PID.TID 0000.0001) // CINT =          0.000000000000000E+00
(PID.TID 0000.0001) // SYMBOLS (CMIN->CMAX): -abcdefghijklmnopqrstuvwxyz+
(PID.TID 0000.0001) //                  0.0: .
(PID.TID 0000.0001) // RANGE I (Lo:Hi:Step):(  -1:   7:   1)
(PID.TID 0000.0001) // RANGE J (Lo:Hi:Step):(   7:  -1:  -1)
(PID.TID 0000.0001) // RANGE K (Lo:Hi:Step):(   1:   1:   1)
(PID.TID 0000.0001) // =======================================================
(PID.TID 0000.0001) // =======================================================
(PID.TID 0000.0001) // END OF FIELD                                          =
(PID.TID 0000.0001) // =======================================================
(PID.TID 0000.0001) 
(PID.TID 0000.0001) // =======================================================
(PID.TID 0000.0001) // Field hFacC at iteration          1
(PID.TID 0000.0001) // CMIN =          1.000000000000000E+00
(PID.TID 0000.0001) // CMAX =          1.000000000000000E+00
(PID.TID 0000.0001) // CINT =          0.000000000000000E+00
(PID.TID 0000.0001) // SYMBOLS (CMIN->CMAX): -abcdefghijklmnopqrstuvwxyz+
(PID.TID 0000.0001) //                  0.0: .
(PID.TID 0000.0001) // RANGE I (Lo:Hi:Step):(  -1:   7:   1)
(PID.TID 0000.0001) // RANGE J (Lo:Hi:Step):(   7:  -1:  -1)
(PID.TID 0000.0001) // RANGE K (Lo:Hi:Step):(   1:   1:   1)
(PID.TID 0000.0001) // =======================================================
(PID.TID 0000.0001) // =======================================================
(PID.TID 0000.0001) // END OF FIELD                                          =
(PID.TID 0000.0001) // =======================================================
(PID.TID 0000.0001) 
(PID.TID 0000.0001) // =======================================================
(PID.TID 0000.0001) // Field hFacW at iteration          1
(PID.TID 0000.0001) // CMIN =          1.000000000000000E+00
(PID.TID 0000.0001) // CMAX =          1.000000000000000E+00
(PID.TID 0000.0001) // CINT =          0.000000000000000E+00
(PID.TID 0000.0001) // SYMBOLS (CMIN->CMAX): -abcdefghijklmnopqrstuvwxyz+
(PID.TID 0000.0001) //                  0.0: .
(PID.TID 0000.0001) // RANGE I (Lo:Hi:Step):(  -1:   7:   1)
(PID.TID 0000.0001) // RANGE J (Lo:Hi:Step):(   7:  -1:  -1)
(PID.TID 0000.0001) // RANGE K (Lo:Hi:Step):(   1:   1:   1)
(PID.TID 0000.0001) // =======================================================
(PID.TID 0000.0001) // =======================================================
(PID.TID 0000.0001) // END OF FIELD                                          =
(PID.TID 0000.0001) // =======================================================
(PID.TID 0000.0001) 
(PID.TID 0000.0001) // =======================================================
(PID.TID 0000.0001) // Field hFacS at iteration          1
(PID.TID 0000.0001) // CMIN =          1.000000000000000E+00
(PID.TID 0000.0001) // CMAX =          1.000000000000000E+00
(PID.TID 0000.0001) // CINT =          0.000000000000000E+00
(PID.TID 0000.0001) // SYMBOLS (CMIN->CMAX): -abcdefghijklmnopqrstuvwxyz+
(PID.TID 0000.0001) //                  0.0: .
(PID.TID 0000.0001) // RANGE I (Lo:Hi:Step):(  -1:   7:   1)
(PID.TID 0000.0001) // RANGE J (Lo:Hi:Step):(   7:  -1:  -1)
(PID.TID 0000.0001) // RANGE K (Lo:Hi:Step):(   1:   1:   1)
(PID.TID 0000.0001) // =======================================================
(PID.TID 0000.0001) // =======================================================
(PID.TID 0000.0001) // END OF FIELD                                          =
(PID.TID 0000.0001) // =======================================================
(PID.TID 0000.0001) 
(PID.TID 0000.0001) // =======================================================
(PID.TID 0000.0001) // Field Initial Temperature at iteration          1
(PID.TID 0000.0001) // CMIN =          4.000000000000000E+00
(PID.TID 0000.0001) // CMAX =          4.000000000000000E+00
(PID.TID 0000.0001) // CINT =          0.000000000000000E+00
(PID.TID 0000.0001) // SYMBOLS (CMIN->CMAX): -abcdefghijklmnopqrstuvwxyz+
(PID.TID 0000.0001) //                  0.0: .
(PID.TID 0000.0001) // RANGE I (Lo:Hi:Step):(   1:   5:   1)
(PID.TID 0000.0001) // RANGE J (Lo:Hi:Step):(   5:   1:  -1)
(PID.TID 0000.0001) // RANGE K (Lo:Hi:Step):(   1:   1:   1)
(PID.TID 0000.0001) // =======================================================
(PID.TID 0000.0001) // =======================================================
(PID.TID 0000.0001) // END OF FIELD                                          =
(PID.TID 0000.0001) // =======================================================
(PID.TID 0000.0001) 
(PID.TID 0000.0001) // =======================================================
(PID.TID 0000.0001) // Field Initial Salinity at iteration          1
(PID.TID 0000.0001) // CMIN =          3.500000000000000E+01
(PID.TID 0000.0001) // CMAX =          3.500000000000000E+01
(PID.TID 0000.0001) // CINT =          0.000000000000000E+00
(PID.TID 0000.0001) // SYMBOLS (CMIN->CMAX): -abcdefghijklmnopqrstuvwxyz+
(PID.TID 0000.0001) //                  0.0: .
(PID.TID 0000.0001) // RANGE I (Lo:Hi:Step):(   1:   5:   1)
(PID.TID 0000.0001) // RANGE J (Lo:Hi:Step):(   5:   1:  -1)
(PID.TID 0000.0001) // RANGE K (Lo:Hi:Step):(   1:   1:   1)
(PID.TID 0000.0001) // =======================================================
(PID.TID 0000.0001) // =======================================================
(PID.TID 0000.0001) // END OF FIELD                                          =
(PID.TID 0000.0001) // =======================================================
(PID.TID 0000.0001) 
(PID.TID 0000.0001) Start initial hydrostatic pressure computation
(PID.TID 0000.0001) Pressure is predetermined for buoyancyRelation OCEANIC
(PID.TID 0000.0001) 
(PID.TID 0000.0001)  MDSREADFIELD: opening global file: windx.sin_y
(PID.TID 0000.0001) // =======================================================
(PID.TID 0000.0001) // Model current state
(PID.TID 0000.0001) // =======================================================
(PID.TID 0000.0001) 
 cg2d: Sum(rhs),rhsMax =   0.00000000000000E+00  0.00000000000000E+00
 cg2d: Sum(rhs),rhsMax =   4.68375338513738E-16  2.62483626325265E-03
 cg2d: Sum(rhs),rhsMax =   4.68375338513738E-16  5.13362634662426E-03
 cg2d: Sum(rhs),rhsMax =  -1.87783816274489E-16  7.16168462325462E-03
 cg2d: Sum(rhs),rhsMax =   1.29236898960272E-16  9.29466759634191E-03
 cg2d: Sum(rhs),rhsMax =   2.49800180540660E-16  1.15304357224131E-02
 cg2d: Sum(rhs),rhsMax =  -2.51101223147643E-16  1.37809802837545E-02
 cg2d: Sum(rhs),rhsMax =  -9.78384040450919E-16  1.60011248015118E-02
 cg2d: Sum(rhs),rhsMax =  -1.45716771982052E-16  1.82027337724446E-02
 cg2d: Sum(rhs),rhsMax =   4.16333634234434E-16  2.04493560649242E-02
 cg2d: Sum(rhs),rhsMax =   4.16333634234434E-17  2.25706027487014E-02
 cg2d: Sum(rhs),rhsMax =  -1.80411241501588E-16  2.45301656884845E-02
 cg2d: Sum(rhs),rhsMax =  -4.99600361081320E-16  2.63097944076130E-02
 cg2d: Sum(rhs),rhsMax =  -3.46944695195361E-16  2.79110496898143E-02
 cg2d: Sum(rhs),rhsMax =   0.00000000000000E+00  2.93538602043329E-02
 cg2d: Sum(rhs),rhsMax =  -3.46944695195361E-17  3.06720438744037E-02
 cg2d: Sum(rhs),rhsMax =   1.87350135405495E-16  3.19067816214185E-02
 cg2d: Sum(rhs),rhsMax =  -1.94289029309402E-16  3.30992667204824E-02
 cg2d: Sum(rhs),rhsMax =  -2.01227923213310E-16  3.42837432361379E-02
 cg2d: Sum(rhs),rhsMax =   3.60822483003176E-16  3.54819650248764E-02
 cg2d: Sum(rhs),rhsMax =   1.73472347597681E-16  3.66998057865650E-02
 cg2d: Sum(rhs),rhsMax =   5.27355936696949E-16  3.79264044848697E-02
 cg2d: Sum(rhs),rhsMax =   6.03683769639929E-16  3.91358857669020E-02
 cg2d: Sum(rhs),rhsMax =   2.35922392732846E-16  4.02913638480137E-02
 cg2d: Sum(rhs),rhsMax =  -3.19189119579733E-16  4.13506293829777E-02
 cg2d: Sum(rhs),rhsMax =  -4.30211422042248E-16  4.22726605790394E-02
 cg2d: Sum(rhs),rhsMax =  -6.10622663543836E-16  4.30239434321773E-02
 cg2d: Sum(rhs),rhsMax =  -5.96744875736022E-16  4.35835861275008E-02
 cg2d: Sum(rhs),rhsMax =  -5.27355936696949E-16  4.39463977518454E-02
 cg2d: Sum(rhs),rhsMax =  -2.08166817117217E-16  4.41234513614436E-02
 cg2d: Sum(rhs),rhsMax =  -5.82867087928207E-16  4.41400961179136E-02
 cg2d: Sum(rhs),rhsMax =  -5.41233724504764E-16  4.40318240197640E-02
 cg2d: Sum(rhs),rhsMax =  -1.04083408558608E-15  4.38387396258672E-02
 cg2d: Sum(rhs),rhsMax =  -1.29063426612674E-15  4.54379565457990E-02
 cg2d: Sum(rhs),rhsMax =  -1.26287869051112E-15  4.77259346948875E-02
 cg2d: Sum(rhs),rhsMax =  -4.99600361081320E-16  4.99949948620519E-02
 cg2d: Sum(rhs),rhsMax =  -1.09634523681734E-15  5.22073352359289E-02
 cg2d: Sum(rhs),rhsMax =  -1.16573417585641E-15  5.43317161410463E-02
 cg2d: Sum(rhs),rhsMax =  -1.91513471747840E-15  5.63476441011471E-02
 cg2d: Sum(rhs),rhsMax =  -2.08166817117217E-15  5.82478254505788E-02
 cg2d: Sum(rhs),rhsMax =  -1.85962356624714E-15  6.00385234735205E-02
 cg2d: Sum(rhs),rhsMax =  -1.97064586870965E-15  6.17377936717151E-02
 cg2d: Sum(rhs),rhsMax =  -2.52575738102223E-15  6.33719190732305E-02
 cg2d: Sum(rhs),rhsMax =  -2.16493489801906E-15  6.49706569785076E-02
 cg2d: Sum(rhs),rhsMax =  -1.94289029309402E-15  6.65620863474045E-02
 cg2d: Sum(rhs),rhsMax =  -1.99840144432528E-15  6.81678820924148E-02
 cg2d: Sum(rhs),rhsMax =  -1.38777878078145E-15  6.97997405284059E-02
 cg2d: Sum(rhs),rhsMax =  -1.38777878078145E-15  7.14574676888848E-02
 cg2d: Sum(rhs),rhsMax =  -1.13797860024079E-15  7.31289637710106E-02
 cg2d: Sum(rhs),rhsMax =  -1.38777878078145E-15  7.47920409672716E-02
 cg2d: Sum(rhs),rhsMax =  -1.83186799063151E-15  7.64177414273195E-02
 cg2d: Sum(rhs),rhsMax =  -1.13797860024079E-15  7.79746108828982E-02
 cg2d: Sum(rhs),rhsMax =  -1.05471187339390E-15  7.94332558743561E-02
 cg2d: Sum(rhs),rhsMax =  -1.22124532708767E-15  8.07704837294648E-02
 cg2d: Sum(rhs),rhsMax =  -1.11022302462516E-15  8.19723993287425E-02
 cg2d: Sum(rhs),rhsMax =  -5.27355936696949E-16  8.30360030001924E-02
 cg2d: Sum(rhs),rhsMax =  -1.38777878078145E-16  8.39690759935623E-02
 cg2d: Sum(rhs),rhsMax =  -2.35922392732846E-16  8.47884158379428E-02
 cg2d: Sum(rhs),rhsMax =   2.49800180540660E-16  8.55167466916504E-02
 cg2d: Sum(rhs),rhsMax =   1.38777878078145E-17  8.61788335888563E-02
 cg2d: Sum(rhs),rhsMax =   1.38777878078145E-17  8.67974396509465E-02
 cg2d: Sum(rhs),rhsMax =   3.88578058618805E-16  8.73897663023972E-02
 cg2d: Sum(rhs),rhsMax =   2.91433543964104E-16  8.79649141322498E-02
 cg2d: Sum(rhs),rhsMax =   5.13478148889135E-16  8.85227200685389E-02
 cg2d: Sum(rhs),rhsMax =   1.38777878078145E-16  8.90540995812154E-02
 cg2d: Sum(rhs),rhsMax =   3.88578058618805E-16  8.95427881825886E-02
 cg2d: Sum(rhs),rhsMax =   1.66533453693773E-16  8.99681687538318E-02
 cg2d: Sum(rhs),rhsMax =  -4.85722573273506E-17  9.03087175831619E-02
 cg2d: Sum(rhs),rhsMax =  -2.08166817117217E-17  9.05455214811986E-02
 cg2d: Sum(rhs),rhsMax =   3.46944695195361E-17  9.06653206892736E-02
 cg2d: Sum(rhs),rhsMax =   6.93889390390723E-17  9.06626168706193E-02
 cg2d: Sum(rhs),rhsMax =   2.08166817117217E-17  9.05405401586547E-02
 cg2d: Sum(rhs),rhsMax =  -3.81639164714898E-17  9.03103705606647E-02
 cg2d: Sum(rhs),rhsMax =  -1.49186218934005E-16  8.99898246495511E-02
 cg2d: Sum(rhs),rhsMax =  -2.68882138776405E-16  8.96004124615204E-02
 cg2d: Sum(rhs),rhsMax =  -5.25295952569227E-16  8.91643092625433E-02
 cg2d: Sum(rhs),rhsMax =  -8.17054757185076E-16  8.87012499132997E-02
 cg2d: Sum(rhs),rhsMax =  -9.33281230075522E-16  8.82259321083027E-02
 cg2d: Sum(rhs),rhsMax =  -9.12464548363801E-16  8.77463163384121E-02
 cg2d: Sum(rhs),rhsMax =  -1.03042574473022E-15  8.72630551945825E-02
 cg2d: Sum(rhs),rhsMax =  -1.16573417585641E-15  8.67701003306554E-02
 cg2d: Sum(rhs),rhsMax =  -1.16573417585641E-15  8.62563517922026E-02
 cg2d: Sum(rhs),rhsMax =  -1.30277733045858E-15  8.57080586503957E-02
 cg2d: Sum(rhs),rhsMax =  -1.50400525367189E-15  8.51115733591805E-02
 cg2d: Sum(rhs),rhsMax =  -1.87697080100691E-15  8.44560187492387E-02
 cg2d: Sum(rhs),rhsMax =  -2.24299745443801E-15  8.37354510728259E-02
 cg2d: Sum(rhs),rhsMax =  -2.72698530423554E-15  8.29501905738397E-02
 cg2d: Sum(rhs),rhsMax =  -3.36970035208495E-15  8.21071288668646E-02
 cg2d: Sum(rhs),rhsMax =  -3.37924133120282E-15  8.12189881379342E-02
 cg2d: Sum(rhs),rhsMax =  -3.78429926284340E-15  8.03026739996102E-02
 cg2d: Sum(rhs),rhsMax =  -3.76434994286967E-15  7.93770044140472E-02
 cg2d: Sum(rhs),rhsMax =  -3.80251385934116E-15  7.84601886923531E-02
 cg2d: Sum(rhs),rhsMax =  -3.59261231874797E-15  7.75674593606174E-02
 cg2d: Sum(rhs),rhsMax =  -3.60822483003176E-15  7.67092231408384E-02
 cg2d: Sum(rhs),rhsMax =  -3.51108031537706E-15  7.58900040990036E-02
 cg2d: Sum(rhs),rhsMax =  -3.56659146660832E-15  7.51083196174239E-02
 cg2d: Sum(rhs),rhsMax =  -3.47638584585752E-15  7.43574807313663E-02
 cg2d: Sum(rhs),rhsMax =  -3.30291349825984E-15  7.36271660052522E-02
 cg2d: Sum(rhs),rhsMax =  -2.99760216648792E-15  7.29055035162623E-02
 cg2d: Sum(rhs),rhsMax =  -3.48332473976143E-15  7.21813246463424E-02
 --> objf_test(bi,bj)   = -0.849803596230685E+00
 --> objf_tracer(bi,bj) =  0.000000000000000E+00
 --> objf_atl(bi,bj)    =  0.000000000000000E+00
  local fc = -0.849803596230685E+00
 global fc = -0.849803596230685E+00
 ph-check fcpertplus =  -0.849803596
(PID.TID 0000.0001)  MDSREADFIELD: opening file: xx_depth.0000000000.001.001.data
 ph-check fcpertminus =  -0.849803598
(PID.TID 0000.0001)  MDSREADFIELD: opening file: xx_depth.0000000000.001.001.data
(PID.TID 0000.0001)  MDSREADFIELD: opening global file: walls.bigRidge
(PID.TID 0000.0001) // =======================================================
(PID.TID 0000.0001) // Field Bottom depths (ini_depths) at iteration          1
(PID.TID 0000.0001) // CMIN =         -5.000000000000000E+03
(PID.TID 0000.0001) // CMAX =         -2.000000000000000E+03
(PID.TID 0000.0001) // CINT =          1.111111111111111E+02
(PID.TID 0000.0001) // SYMBOLS (CMIN->CMAX): -abcdefghijklmnopqrstuvwxyz+
(PID.TID 0000.0001) //                  0.0: .
(PID.TID 0000.0001) // RANGE I (Lo:Hi:Step):(  -1:   7:   1)
(PID.TID 0000.0001) // RANGE J (Lo:Hi:Step):(   7:  -1:  -1)
(PID.TID 0000.0001) // RANGE K (Lo:Hi:Step):(   1:   1:   1)
(PID.TID 0000.0001) // =======================================================
(PID.TID 0000.0001) K =   1
(PID.TID 0000.0001) //
(PID.TID 0000.0001) // |--J--|*01234567
(PID.TID 0000.0001) //      7 ----+----
(PID.TID 0000.0001) //      6 .........
(PID.TID 0000.0001) //      5 ----+----
(PID.TID 0000.0001) //      4 ----+----
(PID.TID 0000.0001) //      3 ----+----
(PID.TID 0000.0001) //      2 ----+----
(PID.TID 0000.0001) //      1 .........
(PID.TID 0000.0001) //      0 ----+----
(PID.TID 0000.0001) //     -1 ----+----
(PID.TID 0000.0001) // =======================================================
(PID.TID 0000.0001) // END OF FIELD                                          =
(PID.TID 0000.0001) // =======================================================
(PID.TID 0000.0001) 
(PID.TID 0000.0001) // =======================================================
(PID.TID 0000.0001) // Field Model R_low (ini_masks_etc) at iteration          1
(PID.TID 0000.0001) // CMIN =         -5.000000000000000E+03
(PID.TID 0000.0001) // CMAX =         -2.000000000000000E+03
(PID.TID 0000.0001) // CINT =          1.111111111111111E+02
(PID.TID 0000.0001) // SYMBOLS (CMIN->CMAX): -abcdefghijklmnopqrstuvwxyz+
(PID.TID 0000.0001) //                  0.0: .
(PID.TID 0000.0001) // RANGE I (Lo:Hi:Step):(  -1:   7:   1)
(PID.TID 0000.0001) // RANGE J (Lo:Hi:Step):(   7:  -1:  -1)
(PID.TID 0000.0001) // RANGE K (Lo:Hi:Step):(   1:   1:   1)
(PID.TID 0000.0001) // =======================================================
(PID.TID 0000.0001) K =   1
(PID.TID 0000.0001) //
(PID.TID 0000.0001) // |--J--|*01234567
(PID.TID 0000.0001) //      7 ----+----
(PID.TID 0000.0001) //      6 .........
(PID.TID 0000.0001) //      5 ----+----
(PID.TID 0000.0001) //      4 ----+----
(PID.TID 0000.0001) //      3 ----+----
(PID.TID 0000.0001) //      2 ----+----
(PID.TID 0000.0001) //      1 .........
(PID.TID 0000.0001) //      0 ----+----
(PID.TID 0000.0001) //     -1 ----+----
(PID.TID 0000.0001) // =======================================================
(PID.TID 0000.0001) // END OF FIELD                                          =
(PID.TID 0000.0001) // =======================================================
(PID.TID 0000.0001) 
(PID.TID 0000.0001) // =======================================================
(PID.TID 0000.0001) // Field Model Ro_surf (ini_masks_etc) at iteration          1
(PID.TID 0000.0001) // CMIN =          2.273736754432321E-13
(PID.TID 0000.0001) // CMAX =          2.273736754432321E-13
(PID.TID 0000.0001) // CINT =          0.000000000000000E+00
(PID.TID 0000.0001) // SYMBOLS (CMIN->CMAX): -abcdefghijklmnopqrstuvwxyz+
(PID.TID 0000.0001) //                  0.0: .
(PID.TID 0000.0001) // RANGE I (Lo:Hi:Step):(  -1:   7:   1)
(PID.TID 0000.0001) // RANGE J (Lo:Hi:Step):(   7:  -1:  -1)
(PID.TID 0000.0001) // RANGE K (Lo:Hi:Step):(   1:   1:   1)
(PID.TID 0000.0001) // =======================================================
(PID.TID 0000.0001) // =======================================================
(PID.TID 0000.0001) // END OF FIELD                                          =
(PID.TID 0000.0001) // =======================================================
(PID.TID 0000.0001) 
(PID.TID 0000.0001) // =======================================================
(PID.TID 0000.0001) // Field hFacC at iteration          1
(PID.TID 0000.0001) // CMIN =          1.000000000000000E+00
(PID.TID 0000.0001) // CMAX =          1.000000000000000E+00
(PID.TID 0000.0001) // CINT =          0.000000000000000E+00
(PID.TID 0000.0001) // SYMBOLS (CMIN->CMAX): -abcdefghijklmnopqrstuvwxyz+
(PID.TID 0000.0001) //                  0.0: .
(PID.TID 0000.0001) // RANGE I (Lo:Hi:Step):(  -1:   7:   1)
(PID.TID 0000.0001) // RANGE J (Lo:Hi:Step):(   7:  -1:  -1)
(PID.TID 0000.0001) // RANGE K (Lo:Hi:Step):(   1:   1:   1)
(PID.TID 0000.0001) // =======================================================
(PID.TID 0000.0001) // =======================================================
(PID.TID 0000.0001) // END OF FIELD                                          =
(PID.TID 0000.0001) // =======================================================
(PID.TID 0000.0001) 
(PID.TID 0000.0001) // =======================================================
(PID.TID 0000.0001) // Field hFacW at iteration          1
(PID.TID 0000.0001) // CMIN =          1.000000000000000E+00
(PID.TID 0000.0001) // CMAX =          1.000000000000000E+00
(PID.TID 0000.0001) // CINT =          0.000000000000000E+00
(PID.TID 0000.0001) // SYMBOLS (CMIN->CMAX): -abcdefghijklmnopqrstuvwxyz+
(PID.TID 0000.0001) //                  0.0: .
(PID.TID 0000.0001) // RANGE I (Lo:Hi:Step):(  -1:   7:   1)
(PID.TID 0000.0001) // RANGE J (Lo:Hi:Step):(   7:  -1:  -1)
(PID.TID 0000.0001) // RANGE K (Lo:Hi:Step):(   1:   1:   1)
(PID.TID 0000.0001) // =======================================================
(PID.TID 0000.0001) // =======================================================
(PID.TID 0000.0001) // END OF FIELD                                          =
(PID.TID 0000.0001) // =======================================================
(PID.TID 0000.0001) 
(PID.TID 0000.0001) // =======================================================
(PID.TID 0000.0001) // Field hFacS at iteration          1
(PID.TID 0000.0001) // CMIN =          1.000000000000000E+00
(PID.TID 0000.0001) // CMAX =          1.000000000000000E+00
(PID.TID 0000.0001) // CINT =          0.000000000000000E+00
(PID.TID 0000.0001) // SYMBOLS (CMIN->CMAX): -abcdefghijklmnopqrstuvwxyz+
(PID.TID 0000.0001) //                  0.0: .
(PID.TID 0000.0001) // RANGE I (Lo:Hi:Step):(  -1:   7:   1)
(PID.TID 0000.0001) // RANGE J (Lo:Hi:Step):(   7:  -1:  -1)
(PID.TID 0000.0001) // RANGE K (Lo:Hi:Step):(   1:   1:   1)
(PID.TID 0000.0001) // =======================================================
(PID.TID 0000.0001) // =======================================================
(PID.TID 0000.0001) // END OF FIELD                                          =
(PID.TID 0000.0001) // =======================================================
(PID.TID 0000.0001) 
(PID.TID 0000.0001) %MON surfExpanfCori_max           =  -1.0735540000000E-04
(PID.TID 0000.0001) %MON surfExpanfCori_min           =  -1.1783060000000E-04
(PID.TID 0000.0001) %MON surfExpanfCori_mean          =  -1.1259300000000E-04
(PID.TID 0000.0001) %MON surfExpanfCori_sd            =   3.7035424771427E-06
(PID.TID 0000.0001) %MON surfExpanfCoriG_max          =  -1.0866480000000E-04
(PID.TID 0000.0001) %MON surfExpanfCoriG_min          =  -1.1914000000000E-04
(PID.TID 0000.0001) %MON surfExpanfCoriG_mean         =  -1.1390240000000E-04
(PID.TID 0000.0001) %MON surfExpanfCoriG_sd           =   3.7035424771427E-06
(PID.TID 0000.0001) %MON surfExpanfCoriCos_max        =   0.0000000000000E+00
(PID.TID 0000.0001) %MON surfExpanfCoriCos_min        =   0.0000000000000E+00
(PID.TID 0000.0001) %MON surfExpanfCoriCos_mean       =   0.0000000000000E+00
(PID.TID 0000.0001) %MON surfExpanfCoriCos_sd         =   0.0000000000000E+00
(PID.TID 0000.0001) INI_CG2D: CG2D normalisation factor =  1.9999999999999996E-04
(PID.TID 0000.0001) 
                     ctrl_depth_ini: ctrl update R_low,
                                     adding the control vector.
(PID.TID 0000.0001)  MDSREADFIELD: opening file: xx_depth.0000000000.001.001.data
(PID.TID 0000.0001) // =======================================================
(PID.TID 0000.0001) // Field Model Ro_surf (update_masks_etc) at iteration          1
(PID.TID 0000.0001) // CMIN =          2.273736754432321E-13
(PID.TID 0000.0001) // CMAX =          2.273736754432321E-13
(PID.TID 0000.0001) // CINT =          0.000000000000000E+00
(PID.TID 0000.0001) // SYMBOLS (CMIN->CMAX): -abcdefghijklmnopqrstuvwxyz+
(PID.TID 0000.0001) //                  0.0: .
(PID.TID 0000.0001) // RANGE I (Lo:Hi:Step):(  -1:   7:   1)
(PID.TID 0000.0001) // RANGE J (Lo:Hi:Step):(   7:  -1:  -1)
(PID.TID 0000.0001) // RANGE K (Lo:Hi:Step):(   1:   1:   1)
(PID.TID 0000.0001) // =======================================================
(PID.TID 0000.0001) // =======================================================
(PID.TID 0000.0001) // END OF FIELD                                          =
(PID.TID 0000.0001) // =======================================================
(PID.TID 0000.0001) 
(PID.TID 0000.0001) // =======================================================
(PID.TID 0000.0001) // Field hFacC at iteration          1
(PID.TID 0000.0001) // CMIN =          1.000000000000000E+00
(PID.TID 0000.0001) // CMAX =          1.000000000000000E+00
(PID.TID 0000.0001) // CINT =          0.000000000000000E+00
(PID.TID 0000.0001) // SYMBOLS (CMIN->CMAX): -abcdefghijklmnopqrstuvwxyz+
(PID.TID 0000.0001) //                  0.0: .
(PID.TID 0000.0001) // RANGE I (Lo:Hi:Step):(  -1:   7:   1)
(PID.TID 0000.0001) // RANGE J (Lo:Hi:Step):(   7:  -1:  -1)
(PID.TID 0000.0001) // RANGE K (Lo:Hi:Step):(   1:   1:   1)
(PID.TID 0000.0001) // =======================================================
(PID.TID 0000.0001) // =======================================================
(PID.TID 0000.0001) // END OF FIELD                                          =
(PID.TID 0000.0001) // =======================================================
(PID.TID 0000.0001) 
(PID.TID 0000.0001) // =======================================================
(PID.TID 0000.0001) // Field hFacW at iteration          1
(PID.TID 0000.0001) // CMIN =          1.000000000000000E+00
(PID.TID 0000.0001) // CMAX =          1.000000000000000E+00
(PID.TID 0000.0001) // CINT =          0.000000000000000E+00
(PID.TID 0000.0001) // SYMBOLS (CMIN->CMAX): -abcdefghijklmnopqrstuvwxyz+
(PID.TID 0000.0001) //                  0.0: .
(PID.TID 0000.0001) // RANGE I (Lo:Hi:Step):(  -1:   7:   1)
(PID.TID 0000.0001) // RANGE J (Lo:Hi:Step):(   7:  -1:  -1)
(PID.TID 0000.0001) // RANGE K (Lo:Hi:Step):(   1:   1:   1)
(PID.TID 0000.0001) // =======================================================
(PID.TID 0000.0001) // =======================================================
(PID.TID 0000.0001) // END OF FIELD                                          =
(PID.TID 0000.0001) // =======================================================
(PID.TID 0000.0001) 
(PID.TID 0000.0001) // =======================================================
(PID.TID 0000.0001) // Field hFacS at iteration          1
(PID.TID 0000.0001) // CMIN =          1.000000000000000E+00
(PID.TID 0000.0001) // CMAX =          1.000000000000000E+00
(PID.TID 0000.0001) // CINT =          0.000000000000000E+00
(PID.TID 0000.0001) // SYMBOLS (CMIN->CMAX): -abcdefghijklmnopqrstuvwxyz+
(PID.TID 0000.0001) //                  0.0: .
(PID.TID 0000.0001) // RANGE I (Lo:Hi:Step):(  -1:   7:   1)
(PID.TID 0000.0001) // RANGE J (Lo:Hi:Step):(   7:  -1:  -1)
(PID.TID 0000.0001) // RANGE K (Lo:Hi:Step):(   1:   1:   1)
(PID.TID 0000.0001) // =======================================================
(PID.TID 0000.0001) // =======================================================
(PID.TID 0000.0001) // END OF FIELD                                          =
(PID.TID 0000.0001) // =======================================================
(PID.TID 0000.0001) 
(PID.TID 0000.0001) // =======================================================
(PID.TID 0000.0001) // Field Initial Temperature at iteration          1
(PID.TID 0000.0001) // CMIN =          4.000000000000000E+00
(PID.TID 0000.0001) // CMAX =          4.000000000000000E+00
(PID.TID 0000.0001) // CINT =          0.000000000000000E+00
(PID.TID 0000.0001) // SYMBOLS (CMIN->CMAX): -abcdefghijklmnopqrstuvwxyz+
(PID.TID 0000.0001) //                  0.0: .
(PID.TID 0000.0001) // RANGE I (Lo:Hi:Step):(   1:   5:   1)
(PID.TID 0000.0001) // RANGE J (Lo:Hi:Step):(   5:   1:  -1)
(PID.TID 0000.0001) // RANGE K (Lo:Hi:Step):(   1:   1:   1)
(PID.TID 0000.0001) // =======================================================
(PID.TID 0000.0001) // =======================================================
(PID.TID 0000.0001) // END OF FIELD                                          =
(PID.TID 0000.0001) // =======================================================
(PID.TID 0000.0001) 
(PID.TID 0000.0001) // =======================================================
(PID.TID 0000.0001) // Field Initial Salinity at iteration          1
(PID.TID 0000.0001) // CMIN =          3.500000000000000E+01
(PID.TID 0000.0001) // CMAX =          3.500000000000000E+01
(PID.TID 0000.0001) // CINT =          0.000000000000000E+00
(PID.TID 0000.0001) // SYMBOLS (CMIN->CMAX): -abcdefghijklmnopqrstuvwxyz+
(PID.TID 0000.0001) //                  0.0: .
(PID.TID 0000.0001) // RANGE I (Lo:Hi:Step):(   1:   5:   1)
(PID.TID 0000.0001) // RANGE J (Lo:Hi:Step):(   5:   1:  -1)
(PID.TID 0000.0001) // RANGE K (Lo:Hi:Step):(   1:   1:   1)
(PID.TID 0000.0001) // =======================================================
(PID.TID 0000.0001) // =======================================================
(PID.TID 0000.0001) // END OF FIELD                                          =
(PID.TID 0000.0001) // =======================================================
(PID.TID 0000.0001) 
(PID.TID 0000.0001) Start initial hydrostatic pressure computation
(PID.TID 0000.0001) Pressure is predetermined for buoyancyRelation OCEANIC
(PID.TID 0000.0001) 
(PID.TID 0000.0001)  MDSREADFIELD: opening global file: windx.sin_y
(PID.TID 0000.0001) // =======================================================
(PID.TID 0000.0001) // Model current state
(PID.TID 0000.0001) // =======================================================
(PID.TID 0000.0001) 
 cg2d: Sum(rhs),rhsMax =   0.00000000000000E+00  0.00000000000000E+00
 cg2d: Sum(rhs),rhsMax =   4.68375338513738E-16  2.62483626325265E-03
 cg2d: Sum(rhs),rhsMax =   4.07660016854550E-16  5.13362632059215E-03
 cg2d: Sum(rhs),rhsMax =  -4.18068357710411E-16  7.16168456236153E-03
 cg2d: Sum(rhs),rhsMax =  -9.05525654459893E-16  9.29466752337838E-03
 cg2d: Sum(rhs),rhsMax =  -8.63892291036450E-16  1.15304356370891E-02
 cg2d: Sum(rhs),rhsMax =   1.02348685082632E-16  1.37809801870195E-02
 cg2d: Sum(rhs),rhsMax =  -2.63677968348475E-16  1.60011246923459E-02
 cg2d: Sum(rhs),rhsMax =  -2.08166817117217E-17  1.82027338100005E-02
 cg2d: Sum(rhs),rhsMax =  -3.60822483003176E-16  2.04493561093859E-02
 cg2d: Sum(rhs),rhsMax =  -3.88578058618805E-16  2.25706027991183E-02
 cg2d: Sum(rhs),rhsMax =  -6.80011602582908E-16  2.45301657439195E-02
 cg2d: Sum(rhs),rhsMax =  -6.24500451351651E-16  2.63097944673723E-02
 cg2d: Sum(rhs),rhsMax =  -6.93889390390723E-17  2.79110497536142E-02
 cg2d: Sum(rhs),rhsMax =   9.02056207507940E-17  2.93538602723998E-02
 cg2d: Sum(rhs),rhsMax =  -2.77555756156289E-17  3.06720439474808E-02
 cg2d: Sum(rhs),rhsMax =  -8.46545056276682E-16  3.19067817006887E-02
 cg2d: Sum(rhs),rhsMax =  -7.49400541621981E-16  3.30992668074174E-02
 cg2d: Sum(rhs),rhsMax =  -5.13478148889135E-16  3.42837433323022E-02
 cg2d: Sum(rhs),rhsMax =   4.71844785465692E-16  3.54819651317187E-02
 cg2d: Sum(rhs),rhsMax =   4.30211422042248E-16  3.66998059052293E-02
 cg2d: Sum(rhs),rhsMax =   3.88578058618805E-16  3.79264046160582E-02
 cg2d: Sum(rhs),rhsMax =   1.38777878078145E-16  3.91358859108101E-02
 cg2d: Sum(rhs),rhsMax =   6.93889390390723E-17  4.02913640043465E-02
 cg2d: Sum(rhs),rhsMax =  -2.63677968348475E-16  4.13506295510442E-02
 cg2d: Sum(rhs),rhsMax =   8.32667268468867E-17  4.22726607579089E-02
 cg2d: Sum(rhs),rhsMax =   5.96744875736022E-16  4.30239436208714E-02
 cg2d: Sum(rhs),rhsMax =   2.49800180540660E-16  4.35835863251917E-02
 cg2d: Sum(rhs),rhsMax =   5.68989300120393E-16  4.39463979580289E-02
 cg2d: Sum(rhs),rhsMax =   5.68989300120393E-16  4.41234515760607E-02
 cg2d: Sum(rhs),rhsMax =   4.57966997657877E-16  4.41400963414032E-02
 cg2d: Sum(rhs),rhsMax =   8.60422844084496E-16  4.40318242530400E-02
 cg2d: Sum(rhs),rhsMax =   1.22124532708767E-15  4.38387398702247E-02
 cg2d: Sum(rhs),rhsMax =   1.11022302462516E-15  4.54379563411101E-02
 cg2d: Sum(rhs),rhsMax =   1.56819002228303E-15  4.77259344714078E-02
 cg2d: Sum(rhs),rhsMax =   1.16573417585641E-15  4.99949946193865E-02
 cg2d: Sum(rhs),rhsMax =   1.06858966120171E-15  5.22073349738444E-02
 cg2d: Sum(rhs),rhsMax =   3.33066907387547E-16  5.43317158594280E-02
 cg2d: Sum(rhs),rhsMax =   4.57966997657877E-16  5.63476437999497E-02
 cg2d: Sum(rhs),rhsMax =   9.15933995315754E-16  5.82478251297764E-02
 cg2d: Sum(rhs),rhsMax =   9.43689570931383E-16  6.00385231330651E-02
 cg2d: Sum(rhs),rhsMax =   1.02695629777827E-15  6.17377933115096E-02
 cg2d: Sum(rhs),rhsMax =   8.32667268468867E-16  6.33719186931196E-02
 cg2d: Sum(rhs),rhsMax =   1.02695629777827E-15  6.49706565782873E-02
 cg2d: Sum(rhs),rhsMax =   1.44328993201270E-15  6.65620859268491E-02
 cg2d: Sum(rhs),rhsMax =   1.83186799063151E-15  6.81678816513150E-02
 cg2d: Sum(rhs),rhsMax =   1.66533453693773E-15  6.97997400666121E-02
 cg2d: Sum(rhs),rhsMax =   1.27675647831893E-15  7.14574672063490E-02
 cg2d: Sum(rhs),rhsMax =   1.36002320516582E-15  7.31289632678188E-02
 cg2d: Sum(rhs),rhsMax =   1.38777878078145E-15  7.47920404436622E-02
 cg2d: Sum(rhs),rhsMax =   1.69309011255336E-15  7.64177408836852E-02
 cg2d: Sum(rhs),rhsMax =   1.22124532708767E-15  7.79746103197702E-02
 cg2d: Sum(rhs),rhsMax =   1.77635683940025E-15  7.94332552923732E-02
 cg2d: Sum(rhs),rhsMax =   1.60982338570648E-15  8.07704831293332E-02
 cg2d: Sum(rhs),rhsMax =   1.49880108324396E-15  8.19723987111904E-02
 cg2d: Sum(rhs),rhsMax =   2.13717932240343E-15  8.30360023659277E-02
 cg2d: Sum(rhs),rhsMax =   2.74780198594726E-15  8.39690753432385E-02
 cg2d: Sum(rhs),rhsMax =   2.69229083471600E-15  8.47884151721377E-02
 cg2d: Sum(rhs),rhsMax =   2.72004641033163E-15  8.55167460108607E-02
 cg2d: Sum(rhs),rhsMax =   2.33146835171283E-15  8.61788328935067E-02
 cg2d: Sum(rhs),rhsMax =   2.30371277609720E-15  8.67974389414127E-02
 cg2d: Sum(rhs),rhsMax =   2.34534613952064E-15  8.73897655790361E-02
 cg2d: Sum(rhs),rhsMax =   2.55351295663786E-15  8.79649133954343E-02
 cg2d: Sum(rhs),rhsMax =   2.30371277609720E-15  8.85227193186886E-02
 cg2d: Sum(rhs),rhsMax =   2.72004641033163E-15  8.90540988188213E-02
 cg2d: Sum(rhs),rhsMax =   2.66453525910038E-15  8.95427874082241E-02
 cg2d: Sum(rhs),rhsMax =   2.49800180540660E-15  8.99681679681525E-02
 cg2d: Sum(rhs),rhsMax =   2.56739074444567E-15  9.03087167868914E-02
 cg2d: Sum(rhs),rhsMax =   2.33840724561674E-15  9.05455206751036E-02
 cg2d: Sum(rhs),rhsMax =   1.95676808090184E-15  9.06653198741339E-02
 cg2d: Sum(rhs),rhsMax =   1.58900670399476E-15  9.06626160471955E-02
 cg2d: Sum(rhs),rhsMax =   1.07552855510562E-15  9.05405393276588E-02
 cg2d: Sum(rhs),rhsMax =   1.09981468376930E-15  9.03103697227408E-02
 cg2d: Sum(rhs),rhsMax =   3.92047505570758E-16  8.99898238052649E-02
 cg2d: Sum(rhs),rhsMax =   8.13585310233123E-16  8.96004116113624E-02
 cg2d: Sum(rhs),rhsMax =   1.75640751942652E-17  8.91643084069427E-02
 cg2d: Sum(rhs),rhsMax =  -1.90819582357449E-16  8.87012490526479E-02
 cg2d: Sum(rhs),rhsMax =  -3.78169717762944E-16  8.82259312429807E-02
 cg2d: Sum(rhs),rhsMax =  -1.94289029309402E-16  8.77463154688194E-02
 cg2d: Sum(rhs),rhsMax =  -6.93889390390723E-17  8.72630543211612E-02
 cg2d: Sum(rhs),rhsMax =  -6.03683769639929E-16  8.67700994539060E-02
 cg2d: Sum(rhs),rhsMax =  -7.04297731246584E-16  8.62563509126904E-02
 cg2d: Sum(rhs),rhsMax =  -8.89913143176102E-16  8.57080577687442E-02
 cg2d: Sum(rhs),rhsMax =  -1.23859256184744E-15  8.51115724760554E-02
 cg2d: Sum(rhs),rhsMax =  -1.02001740387436E-15  8.44560178653242E-02
 cg2d: Sum(rhs),rhsMax =  -1.02869102125425E-15  8.37354501887960E-02
 cg2d: Sum(rhs),rhsMax =  -1.14491749414469E-15  8.29501896903306E-02
 cg2d: Sum(rhs),rhsMax =  -1.18828558104411E-15  8.21071279844503E-02
 cg2d: Sum(rhs),rhsMax =  -1.36436001385576E-15  8.12189872571101E-02
 cg2d: Sum(rhs),rhsMax =  -1.54477125535735E-15  8.03026731207869E-02
 cg2d: Sum(rhs),rhsMax =  -2.01401395560907E-15  7.93770035375539E-02
 cg2d: Sum(rhs),rhsMax =  -2.09728068245596E-15  7.84601878184506E-02
 cg2d: Sum(rhs),rhsMax =  -1.97931948608954E-15  7.75674584895182E-02
 cg2d: Sum(rhs),rhsMax =  -1.51961776495568E-15  7.67092222727297E-02
 cg2d: Sum(rhs),rhsMax =  -1.56472057533108E-15  7.58900032340698E-02
 cg2d: Sum(rhs),rhsMax =  -1.01307850997046E-15  7.51083187558663E-02
 cg2d: Sum(rhs),rhsMax =  -1.12410081243297E-15  7.43574798734139E-02
 cg2d: Sum(rhs),rhsMax =  -1.04083408558608E-15  7.36271651511656E-02
 cg2d: Sum(rhs),rhsMax =  -6.03683769639929E-16  7.29055026663271E-02
 cg2d: Sum(rhs),rhsMax =  -5.75928194024300E-16  7.21813238008557E-02
 --> objf_test(bi,bj)   = -0.849803599657130E+00
 --> objf_tracer(bi,bj) =  0.000000000000000E+00
 --> objf_atl(bi,bj)    =  0.000000000000000E+00
  local fc = -0.849803599657130E+00
 global fc = -0.849803599657130E+00
(PID.TID 0000.0001)  MDSREADFIELD: opening file: xx_depth.0000000000.001.001.data
 grad-res -------------------------------
 grad-res     0    2    2    2    1   -.849803598E+00 -.849803596E+00 -.849803600E+00
 grad-res     0    2    2    2   20   0.171268159E-04 0.171322229E-04 -.315700038E-03
(PID.TID 0000.0001)       precision_grdchk_result ADM    -8.49803597943908E-01     1.71268159261480E-05
 ph-grd  ierr ---------------------------
 ph-grd  ierr =  0, icomp =  2, ichknum =  2
(PID.TID 0000.0001)  MDSREADFIELD: opening file: adxx_depth.0000000000.001.001.data
(PID.TID 0000.0001)  MDSREADFIELD: opening file: xx_depth.0000000000.001.001.data
(PID.TID 0000.0001)  MDSREADFIELD: opening global file: walls.bigRidge
(PID.TID 0000.0001) // =======================================================
(PID.TID 0000.0001) // Field Bottom depths (ini_depths) at iteration          1
(PID.TID 0000.0001) // CMIN =         -5.000000000000000E+03
(PID.TID 0000.0001) // CMAX =         -2.000000000000000E+03
(PID.TID 0000.0001) // CINT =          1.111111111111111E+02
(PID.TID 0000.0001) // SYMBOLS (CMIN->CMAX): -abcdefghijklmnopqrstuvwxyz+
(PID.TID 0000.0001) //                  0.0: .
(PID.TID 0000.0001) // RANGE I (Lo:Hi:Step):(  -1:   7:   1)
(PID.TID 0000.0001) // RANGE J (Lo:Hi:Step):(   7:  -1:  -1)
(PID.TID 0000.0001) // RANGE K (Lo:Hi:Step):(   1:   1:   1)
(PID.TID 0000.0001) // =======================================================
(PID.TID 0000.0001) K =   1
(PID.TID 0000.0001) //
(PID.TID 0000.0001) // |--J--|*01234567
(PID.TID 0000.0001) //      7 ----+----
(PID.TID 0000.0001) //      6 .........
(PID.TID 0000.0001) //      5 ----+----
(PID.TID 0000.0001) //      4 ----+----
(PID.TID 0000.0001) //      3 ----+----
(PID.TID 0000.0001) //      2 ----+----
(PID.TID 0000.0001) //      1 .........
(PID.TID 0000.0001) //      0 ----+----
(PID.TID 0000.0001) //     -1 ----+----
(PID.TID 0000.0001) // =======================================================
(PID.TID 0000.0001) // END OF FIELD                                          =
(PID.TID 0000.0001) // =======================================================
(PID.TID 0000.0001) 
(PID.TID 0000.0001) // =======================================================
(PID.TID 0000.0001) // Field Model R_low (ini_masks_etc) at iteration          1
(PID.TID 0000.0001) // CMIN =         -5.000000000000000E+03
(PID.TID 0000.0001) // CMAX =         -2.000000000000000E+03
(PID.TID 0000.0001) // CINT =          1.111111111111111E+02
(PID.TID 0000.0001) // SYMBOLS (CMIN->CMAX): -abcdefghijklmnopqrstuvwxyz+
(PID.TID 0000.0001) //                  0.0: .
(PID.TID 0000.0001) // RANGE I (Lo:Hi:Step):(  -1:   7:   1)
(PID.TID 0000.0001) // RANGE J (Lo:Hi:Step):(   7:  -1:  -1)
(PID.TID 0000.0001) // RANGE K (Lo:Hi:Step):(   1:   1:   1)
(PID.TID 0000.0001) // =======================================================
(PID.TID 0000.0001) K =   1
(PID.TID 0000.0001) //
(PID.TID 0000.0001) // |--J--|*01234567
(PID.TID 0000.0001) //      7 ----+----
(PID.TID 0000.0001) //      6 .........
(PID.TID 0000.0001) //      5 ----+----
(PID.TID 0000.0001) //      4 ----+----
(PID.TID 0000.0001) //      3 ----+----
(PID.TID 0000.0001) //      2 ----+----
(PID.TID 0000.0001) //      1 .........
(PID.TID 0000.0001) //      0 ----+----
(PID.TID 0000.0001) //     -1 ----+----
(PID.TID 0000.0001) // =======================================================
(PID.TID 0000.0001) // END OF FIELD                                          =
(PID.TID 0000.0001) // =======================================================
(PID.TID 0000.0001) 
(PID.TID 0000.0001) // =======================================================
(PID.TID 0000.0001) // Field Model Ro_surf (ini_masks_etc) at iteration          1
(PID.TID 0000.0001) // CMIN =          2.273736754432321E-13
(PID.TID 0000.0001) // CMAX =          2.273736754432321E-13
(PID.TID 0000.0001) // CINT =          0.000000000000000E+00
(PID.TID 0000.0001) // SYMBOLS (CMIN->CMAX): -abcdefghijklmnopqrstuvwxyz+
(PID.TID 0000.0001) //                  0.0: .
(PID.TID 0000.0001) // RANGE I (Lo:Hi:Step):(  -1:   7:   1)
(PID.TID 0000.0001) // RANGE J (Lo:Hi:Step):(   7:  -1:  -1)
(PID.TID 0000.0001) // RANGE K (Lo:Hi:Step):(   1:   1:   1)
(PID.TID 0000.0001) // =======================================================
(PID.TID 0000.0001) // =======================================================
(PID.TID 0000.0001) // END OF FIELD                                          =
(PID.TID 0000.0001) // =======================================================
(PID.TID 0000.0001) 
(PID.TID 0000.0001) // =======================================================
(PID.TID 0000.0001) // Field hFacC at iteration          1
(PID.TID 0000.0001) // CMIN =          1.000000000000000E+00
(PID.TID 0000.0001) // CMAX =          1.000000000000000E+00
(PID.TID 0000.0001) // CINT =          0.000000000000000E+00
(PID.TID 0000.0001) // SYMBOLS (CMIN->CMAX): -abcdefghijklmnopqrstuvwxyz+
(PID.TID 0000.0001) //                  0.0: .
(PID.TID 0000.0001) // RANGE I (Lo:Hi:Step):(  -1:   7:   1)
(PID.TID 0000.0001) // RANGE J (Lo:Hi:Step):(   7:  -1:  -1)
(PID.TID 0000.0001) // RANGE K (Lo:Hi:Step):(   1:   1:   1)
(PID.TID 0000.0001) // =======================================================
(PID.TID 0000.0001) // =======================================================
(PID.TID 0000.0001) // END OF FIELD                                          =
(PID.TID 0000.0001) // =======================================================
(PID.TID 0000.0001) 
(PID.TID 0000.0001) // =======================================================
(PID.TID 0000.0001) // Field hFacW at iteration          1
(PID.TID 0000.0001) // CMIN =          1.000000000000000E+00
(PID.TID 0000.0001) // CMAX =          1.000000000000000E+00
(PID.TID 0000.0001) // CINT =          0.000000000000000E+00
(PID.TID 0000.0001) // SYMBOLS (CMIN->CMAX): -abcdefghijklmnopqrstuvwxyz+
(PID.TID 0000.0001) //                  0.0: .
(PID.TID 0000.0001) // RANGE I (Lo:Hi:Step):(  -1:   7:   1)
(PID.TID 0000.0001) // RANGE J (Lo:Hi:Step):(   7:  -1:  -1)
(PID.TID 0000.0001) // RANGE K (Lo:Hi:Step):(   1:   1:   1)
(PID.TID 0000.0001) // =======================================================
(PID.TID 0000.0001) // =======================================================
(PID.TID 0000.0001) // END OF FIELD                                          =
(PID.TID 0000.0001) // =======================================================
(PID.TID 0000.0001) 
(PID.TID 0000.0001) // =======================================================
(PID.TID 0000.0001) // Field hFacS at iteration          1
(PID.TID 0000.0001) // CMIN =          1.000000000000000E+00
(PID.TID 0000.0001) // CMAX =          1.000000000000000E+00
(PID.TID 0000.0001) // CINT =          0.000000000000000E+00
(PID.TID 0000.0001) // SYMBOLS (CMIN->CMAX): -abcdefghijklmnopqrstuvwxyz+
(PID.TID 0000.0001) //                  0.0: .
(PID.TID 0000.0001) // RANGE I (Lo:Hi:Step):(  -1:   7:   1)
(PID.TID 0000.0001) // RANGE J (Lo:Hi:Step):(   7:  -1:  -1)
(PID.TID 0000.0001) // RANGE K (Lo:Hi:Step):(   1:   1:   1)
(PID.TID 0000.0001) // =======================================================
(PID.TID 0000.0001) // =======================================================
(PID.TID 0000.0001) // END OF FIELD                                          =
(PID.TID 0000.0001) // =======================================================
(PID.TID 0000.0001) 
(PID.TID 0000.0001) %MON surfExpanfCori_max           =  -1.0735540000000E-04
(PID.TID 0000.0001) %MON surfExpanfCori_min           =  -1.1783060000000E-04
(PID.TID 0000.0001) %MON surfExpanfCori_mean          =  -1.1259300000000E-04
(PID.TID 0000.0001) %MON surfExpanfCori_sd            =   3.7035424771427E-06
(PID.TID 0000.0001) %MON surfExpanfCoriG_max          =  -1.0866480000000E-04
(PID.TID 0000.0001) %MON surfExpanfCoriG_min          =  -1.1914000000000E-04
(PID.TID 0000.0001) %MON surfExpanfCoriG_mean         =  -1.1390240000000E-04
(PID.TID 0000.0001) %MON surfExpanfCoriG_sd           =   3.7035424771427E-06
(PID.TID 0000.0001) %MON surfExpanfCoriCos_max        =   0.0000000000000E+00
(PID.TID 0000.0001) %MON surfExpanfCoriCos_min        =   0.0000000000000E+00
(PID.TID 0000.0001) %MON surfExpanfCoriCos_mean       =   0.0000000000000E+00
(PID.TID 0000.0001) %MON surfExpanfCoriCos_sd         =   0.0000000000000E+00
(PID.TID 0000.0001) INI_CG2D: CG2D normalisation factor =  1.9999999999999996E-04
(PID.TID 0000.0001) 
                     ctrl_depth_ini: ctrl update R_low,
                                     adding the control vector.
(PID.TID 0000.0001)  MDSREADFIELD: opening file: xx_depth.0000000000.001.001.data
(PID.TID 0000.0001) // =======================================================
(PID.TID 0000.0001) // Field Model Ro_surf (update_masks_etc) at iteration          1
(PID.TID 0000.0001) // CMIN =          2.273736754432321E-13
(PID.TID 0000.0001) // CMAX =          2.273736754432321E-13
(PID.TID 0000.0001) // CINT =          0.000000000000000E+00
(PID.TID 0000.0001) // SYMBOLS (CMIN->CMAX): -abcdefghijklmnopqrstuvwxyz+
(PID.TID 0000.0001) //                  0.0: .
(PID.TID 0000.0001) // RANGE I (Lo:Hi:Step):(  -1:   7:   1)
(PID.TID 0000.0001) // RANGE J (Lo:Hi:Step):(   7:  -1:  -1)
(PID.TID 0000.0001) // RANGE K (Lo:Hi:Step):(   1:   1:   1)
(PID.TID 0000.0001) // =======================================================
(PID.TID 0000.0001) // =======================================================
(PID.TID 0000.0001) // END OF FIELD                                          =
(PID.TID 0000.0001) // =======================================================
(PID.TID 0000.0001) 
(PID.TID 0000.0001) // =======================================================
(PID.TID 0000.0001) // Field hFacC at iteration          1
(PID.TID 0000.0001) // CMIN =          1.000000000000000E+00
(PID.TID 0000.0001) // CMAX =          1.000000000000000E+00
(PID.TID 0000.0001) // CINT =          0.000000000000000E+00
(PID.TID 0000.0001) // SYMBOLS (CMIN->CMAX): -abcdefghijklmnopqrstuvwxyz+
(PID.TID 0000.0001) //                  0.0: .
(PID.TID 0000.0001) // RANGE I (Lo:Hi:Step):(  -1:   7:   1)
(PID.TID 0000.0001) // RANGE J (Lo:Hi:Step):(   7:  -1:  -1)
(PID.TID 0000.0001) // RANGE K (Lo:Hi:Step):(   1:   1:   1)
(PID.TID 0000.0001) // =======================================================
(PID.TID 0000.0001) // =======================================================
(PID.TID 0000.0001) // END OF FIELD                                          =
(PID.TID 0000.0001) // =======================================================
(PID.TID 0000.0001) 
(PID.TID 0000.0001) // =======================================================
(PID.TID 0000.0001) // Field hFacW at iteration          1
(PID.TID 0000.0001) // CMIN =          1.000000000000000E+00
(PID.TID 0000.0001) // CMAX =          1.000000000000000E+00
(PID.TID 0000.0001) // CINT =          0.000000000000000E+00
(PID.TID 0000.0001) // SYMBOLS (CMIN->CMAX): -abcdefghijklmnopqrstuvwxyz+
(PID.TID 0000.0001) //                  0.0: .
(PID.TID 0000.0001) // RANGE I (Lo:Hi:Step):(  -1:   7:   1)
(PID.TID 0000.0001) // RANGE J (Lo:Hi:Step):(   7:  -1:  -1)
(PID.TID 0000.0001) // RANGE K (Lo:Hi:Step):(   1:   1:   1)
(PID.TID 0000.0001) // =======================================================
(PID.TID 0000.0001) // =======================================================
(PID.TID 0000.0001) // END OF FIELD                                          =
(PID.TID 0000.0001) // =======================================================
(PID.TID 0000.0001) 
(PID.TID 0000.0001) // =======================================================
(PID.TID 0000.0001) // Field hFacS at iteration          1
(PID.TID 0000.0001) // CMIN =          1.000000000000000E+00
(PID.TID 0000.0001) // CMAX =          1.000000000000000E+00
(PID.TID 0000.0001) // CINT =          0.000000000000000E+00
(PID.TID 0000.0001) // SYMBOLS (CMIN->CMAX): -abcdefghijklmnopqrstuvwxyz+
(PID.TID 0000.0001) //                  0.0: .
(PID.TID 0000.0001) // RANGE I (Lo:Hi:Step):(  -1:   7:   1)
(PID.TID 0000.0001) // RANGE J (Lo:Hi:Step):(   7:  -1:  -1)
(PID.TID 0000.0001) // RANGE K (Lo:Hi:Step):(   1:   1:   1)
(PID.TID 0000.0001) // =======================================================
(PID.TID 0000.0001) // =======================================================
(PID.TID 0000.0001) // END OF FIELD                                          =
(PID.TID 0000.0001) // =======================================================
(PID.TID 0000.0001) 
(PID.TID 0000.0001) // =======================================================
(PID.TID 0000.0001) // Field Initial Temperature at iteration          1
(PID.TID 0000.0001) // CMIN =          4.000000000000000E+00
(PID.TID 0000.0001) // CMAX =          4.000000000000000E+00
(PID.TID 0000.0001) // CINT =          0.000000000000000E+00
(PID.TID 0000.0001) // SYMBOLS (CMIN->CMAX): -abcdefghijklmnopqrstuvwxyz+
(PID.TID 0000.0001) //                  0.0: .
(PID.TID 0000.0001) // RANGE I (Lo:Hi:Step):(   1:   5:   1)
(PID.TID 0000.0001) // RANGE J (Lo:Hi:Step):(   5:   1:  -1)
(PID.TID 0000.0001) // RANGE K (Lo:Hi:Step):(   1:   1:   1)
(PID.TID 0000.0001) // =======================================================
(PID.TID 0000.0001) // =======================================================
(PID.TID 0000.0001) // END OF FIELD                                          =
(PID.TID 0000.0001) // =======================================================
(PID.TID 0000.0001) 
(PID.TID 0000.0001) // =======================================================
(PID.TID 0000.0001) // Field Initial Salinity at iteration          1
(PID.TID 0000.0001) // CMIN =          3.500000000000000E+01
(PID.TID 0000.0001) // CMAX =          3.500000000000000E+01
(PID.TID 0000.0001) // CINT =          0.000000000000000E+00
(PID.TID 0000.0001) // SYMBOLS (CMIN->CMAX): -abcdefghijklmnopqrstuvwxyz+
(PID.TID 0000.0001) //                  0.0: .
(PID.TID 0000.0001) // RANGE I (Lo:Hi:Step):(   1:   5:   1)
(PID.TID 0000.0001) // RANGE J (Lo:Hi:Step):(   5:   1:  -1)
(PID.TID 0000.0001) // RANGE K (Lo:Hi:Step):(   1:   1:   1)
(PID.TID 0000.0001) // =======================================================
(PID.TID 0000.0001) // =======================================================
(PID.TID 0000.0001) // END OF FIELD                                          =
(PID.TID 0000.0001) // =======================================================
(PID.TID 0000.0001) 
(PID.TID 0000.0001) Start initial hydrostatic pressure computation
(PID.TID 0000.0001) Pressure is predetermined for buoyancyRelation OCEANIC
(PID.TID 0000.0001) 
(PID.TID 0000.0001)  MDSREADFIELD: opening global file: windx.sin_y
(PID.TID 0000.0001) // =======================================================
(PID.TID 0000.0001) // Model current state
(PID.TID 0000.0001) // =======================================================
(PID.TID 0000.0001) 
 cg2d: Sum(rhs),rhsMax =   0.00000000000000E+00  0.00000000000000E+00
 cg2d: Sum(rhs),rhsMax =   4.68375338513738E-16  2.62483626325265E-03
 cg2d: Sum(rhs),rhsMax =   4.38885039422132E-16  5.13362631345746E-03
 cg2d: Sum(rhs),rhsMax =   8.23993651088983E-17  7.16168457451657E-03
 cg2d: Sum(rhs),rhsMax =   1.88217497143484E-16  9.29466753508998E-03
 cg2d: Sum(rhs),rhsMax =  -5.68989300120393E-16  1.15304356522377E-02
 cg2d: Sum(rhs),rhsMax =  -9.41954847455406E-16  1.37809802070198E-02
 cg2d: Sum(rhs),rhsMax =  -5.34294830600857E-16  1.60011247199499E-02
 cg2d: Sum(rhs),rhsMax =  -1.87350135405495E-16  1.82027338762738E-02
 cg2d: Sum(rhs),rhsMax =  -4.02455846426619E-16  2.04493561833075E-02
 cg2d: Sum(rhs),rhsMax =  -5.68989300120393E-16  2.25706028769119E-02
 cg2d: Sum(rhs),rhsMax =  -9.02056207507940E-16  2.45301658213674E-02
 cg2d: Sum(rhs),rhsMax =  -2.91433543964104E-16  2.63097945402751E-02
 cg2d: Sum(rhs),rhsMax =   2.49800180540660E-16  2.79110498182344E-02
 cg2d: Sum(rhs),rhsMax =  -2.56739074444567E-16  2.93538603257902E-02
 cg2d: Sum(rhs),rhsMax =  -1.66533453693773E-16  3.06720439876643E-02
 cg2d: Sum(rhs),rhsMax =  -5.89805981832114E-16  3.19067817266564E-02
 cg2d: Sum(rhs),rhsMax =  -3.74700270810990E-16  3.30992668189543E-02
 cg2d: Sum(rhs),rhsMax =  -5.96744875736022E-16  3.42837433296690E-02
 cg2d: Sum(rhs),rhsMax =  -7.35522753814166E-16  3.54819651152466E-02
 cg2d: Sum(rhs),rhsMax =  -4.51028103753970E-16  3.66998058748949E-02
 cg2d: Sum(rhs),rhsMax =   2.49800180540660E-16  3.79264045711077E-02
 cg2d: Sum(rhs),rhsMax =   7.63278329429795E-17  3.91358858494929E-02
 cg2d: Sum(rhs),rhsMax =  -5.13478148889135E-16  4.02913639238000E-02
 cg2d: Sum(rhs),rhsMax =  -4.16333634234434E-16  4.13506294473485E-02
 cg2d: Sum(rhs),rhsMax =  -3.05311331771918E-16  4.22726606262999E-02
 cg2d: Sum(rhs),rhsMax =  -5.68989300120393E-16  4.30239434560812E-02
 cg2d: Sum(rhs),rhsMax =  -1.01307850997046E-15  4.35835861218631E-02
 cg2d: Sum(rhs),rhsMax =  -1.04083408558608E-15  4.39463977111426E-02
 cg2d: Sum(rhs),rhsMax =  -5.41233724504764E-16  4.41234512813126E-02
 cg2d: Sum(rhs),rhsMax =  -9.43689570931383E-16  4.41400959954785E-02
 cg2d: Sum(rhs),rhsMax =  -1.26287869051112E-15  4.40318238537489E-02
 cg2d: Sum(rhs),rhsMax =  -1.37390099297363E-15  4.38387394164840E-02
 cg2d: Sum(rhs),rhsMax =  -1.30451205393456E-15  4.54379568571114E-02
 cg2d: Sum(rhs),rhsMax =  -1.22124532708767E-15  4.77259350275860E-02
 cg2d: Sum(rhs),rhsMax =  -1.08246744900953E-15  4.99949952150501E-02
 cg2d: Sum(rhs),rhsMax =  -1.70696790036118E-15  5.22073356081485E-02
 cg2d: Sum(rhs),rhsMax =  -2.31759056390501E-15  5.43317165315391E-02
 cg2d: Sum(rhs),rhsMax =  -2.19269047363468E-15  5.63476445091768E-02
 cg2d: Sum(rhs),rhsMax =  -1.63757896132211E-15  5.82478258756515E-02
 cg2d: Sum(rhs),rhsMax =  -1.99840144432528E-15  6.00385239153601E-02
 cg2d: Sum(rhs),rhsMax =  -2.10942374678780E-15  6.17377941301925E-02
 cg2d: Sum(rhs),rhsMax =  -3.02535774210355E-15  6.33719195482569E-02
 cg2d: Sum(rhs),rhsMax =  -2.94209101525666E-15  6.49706574699136E-02
 cg2d: Sum(rhs),rhsMax =  -3.10862446895044E-15  6.65620868548230E-02
 cg2d: Sum(rhs),rhsMax =  -2.96984659087229E-15  6.81678826151887E-02
 cg2d: Sum(rhs),rhsMax =  -2.94209101525666E-15  6.97997410655339E-02
 cg2d: Sum(rhs),rhsMax =  -2.52575738102223E-15  7.14574682390155E-02
 cg2d: Sum(rhs),rhsMax =  -2.13717932240343E-15  7.31289643324837E-02
 cg2d: Sum(rhs),rhsMax =  -1.80411241501588E-15  7.47920415382008E-02
 cg2d: Sum(rhs),rhsMax =  -1.38777878078145E-15  7.64177420057041E-02
 cg2d: Sum(rhs),rhsMax =  -7.49400541621981E-16  7.79746114667457E-02
 cg2d: Sum(rhs),rhsMax =  -5.55111512312578E-16  7.94332564617976E-02
 cg2d: Sum(rhs),rhsMax =  -9.15933995315754E-16  8.07704843188475E-02
 cg2d: Sum(rhs),rhsMax =  -1.33226762955019E-15  8.19723999186849E-02
 cg2d: Sum(rhs),rhsMax =  -1.11022302462516E-15  8.30360035895972E-02
 cg2d: Sum(rhs),rhsMax =  -8.32667268468867E-16  8.39690765815868E-02
 cg2d: Sum(rhs),rhsMax =  -6.52256026967279E-16  8.47884164239328E-02
 cg2d: Sum(rhs),rhsMax =  -9.29811783123569E-16  8.55167472750519E-02
 cg2d: Sum(rhs),rhsMax =  -8.04911692853238E-16  8.61788341691169E-02
 cg2d: Sum(rhs),rhsMax =  -5.96744875736022E-16  8.67974402274265E-02
 cg2d: Sum(rhs),rhsMax =  -1.38777878078145E-17  8.73897668743017E-02
 cg2d: Sum(rhs),rhsMax =  -4.99600361081320E-16  8.79649146985947E-02
 cg2d: Sum(rhs),rhsMax =  -7.07767178198537E-16  8.85227206281525E-02
 cg2d: Sum(rhs),rhsMax =  -1.33226762955019E-15  8.90541001327775E-02
 cg2d: Sum(rhs),rhsMax =  -1.42941214420489E-15  8.95427887246982E-02
 cg2d: Sum(rhs),rhsMax =  -1.27675647831893E-15  8.99681692850930E-02
 cg2d: Sum(rhs),rhsMax =  -1.49880108324396E-15  9.03087181022738E-02
 cg2d: Sum(rhs),rhsMax =  -1.48492329543615E-15  9.05455219870347E-02
 cg2d: Sum(rhs),rhsMax =  -1.55431223447522E-15  9.06653211809391E-02
 cg2d: Sum(rhs),rhsMax =  -1.56125112837913E-15  9.06626173474780E-02
 cg2d: Sum(rhs),rhsMax =  -1.28369537222284E-15  9.05405406203211E-02
 cg2d: Sum(rhs),rhsMax =  -1.36349265211777E-15  9.03103710069660E-02
 cg2d: Sum(rhs),rhsMax =  -2.51187959321442E-15  8.99898250804623E-02
 cg2d: Sum(rhs),rhsMax =  -2.37483643861225E-15  8.96004128770867E-02
 cg2d: Sum(rhs),rhsMax =  -2.47848616630186E-15  8.91643096628013E-02
 cg2d: Sum(rhs),rhsMax =  -2.12156681111964E-15  8.87012502982096E-02
 cg2d: Sum(rhs),rhsMax =  -2.05391259555654E-15  8.82259324777018E-02
 cg2d: Sum(rhs),rhsMax =  -1.91513471747840E-15  8.77463166919972E-02
 cg2d: Sum(rhs),rhsMax =  -1.85962356624714E-15  8.72630555319236E-02
 cg2d: Sum(rhs),rhsMax =  -1.96023752785379E-15  8.67701006512360E-02
 cg2d: Sum(rhs),rhsMax =  -2.16146545106710E-15  8.62563520954827E-02
 cg2d: Sum(rhs),rhsMax =  -1.87870552448288E-15  8.57080589358839E-02
 cg2d: Sum(rhs),rhsMax =  -1.97931948608954E-15  8.51115736265069E-02
 cg2d: Sum(rhs),rhsMax =  -2.60902410786912E-15  8.44560189982155E-02
 cg2d: Sum(rhs),rhsMax =  -2.36095865080443E-15  8.37354513034871E-02
 cg2d: Sum(rhs),rhsMax =  -2.57432963834958E-15  8.29501907864546E-02
 cg2d: Sum(rhs),rhsMax =  -2.54353829665099E-15  8.21071290619235E-02
 cg2d: Sum(rhs),rhsMax =  -2.93081531266282E-15  8.12189883161091E-02
 cg2d: Sum(rhs),rhsMax =  -3.44342609981396E-15  8.03026741616981E-02
 cg2d: Sum(rhs),rhsMax =  -3.06178693509906E-15  7.93770045609037E-02
 cg2d: Sum(rhs),rhsMax =  -3.68455266297474E-15  7.84601888248278E-02
 cg2d: Sum(rhs),rhsMax =  -3.48159001628545E-15  7.75674594795011E-02
 cg2d: Sum(rhs),rhsMax =  -3.22311621836491E-15  7.67092232468283E-02
 cg2d: Sum(rhs),rhsMax =  -3.40352745986650E-15  7.58900041926925E-02
 cg2d: Sum(rhs),rhsMax =  -3.51801920928096E-15  7.51083196993134E-02
 cg2d: Sum(rhs),rhsMax =  -3.53189699708878E-15  7.43574808019002E-02
 cg2d: Sum(rhs),rhsMax =  -3.74700270810990E-15  7.36271660648654E-02
 cg2d: Sum(rhs),rhsMax =  -3.44169137633799E-15  7.29055035654348E-02
 cg2d: Sum(rhs),rhsMax =  -3.39311911901063E-15  7.21813246856510E-02
 --> objf_test(bi,bj)   = -0.849803617771818E+00
 --> objf_tracer(bi,bj) =  0.000000000000000E+00
 --> objf_atl(bi,bj)    =  0.000000000000000E+00
  local fc = -0.849803617771818E+00
 global fc = -0.849803617771818E+00
 ph-check fcpertplus =  -0.849803618
(PID.TID 0000.0001)  MDSREADFIELD: opening file: xx_depth.0000000000.001.001.data
 ph-check fcpertminus =  -0.849803598
(PID.TID 0000.0001)  MDSREADFIELD: opening file: xx_depth.0000000000.001.001.data
(PID.TID 0000.0001)  MDSREADFIELD: opening global file: walls.bigRidge
(PID.TID 0000.0001) // =======================================================
(PID.TID 0000.0001) // Field Bottom depths (ini_depths) at iteration          1
(PID.TID 0000.0001) // CMIN =         -5.000000000000000E+03
(PID.TID 0000.0001) // CMAX =         -2.000000000000000E+03
(PID.TID 0000.0001) // CINT =          1.111111111111111E+02
(PID.TID 0000.0001) // SYMBOLS (CMIN->CMAX): -abcdefghijklmnopqrstuvwxyz+
(PID.TID 0000.0001) //                  0.0: .
(PID.TID 0000.0001) // RANGE I (Lo:Hi:Step):(  -1:   7:   1)
(PID.TID 0000.0001) // RANGE J (Lo:Hi:Step):(   7:  -1:  -1)
(PID.TID 0000.0001) // RANGE K (Lo:Hi:Step):(   1:   1:   1)
(PID.TID 0000.0001) // =======================================================
(PID.TID 0000.0001) K =   1
(PID.TID 0000.0001) //
(PID.TID 0000.0001) // |--J--|*01234567
(PID.TID 0000.0001) //      7 ----+----
(PID.TID 0000.0001) //      6 .........
(PID.TID 0000.0001) //      5 ----+----
(PID.TID 0000.0001) //      4 ----+----
(PID.TID 0000.0001) //      3 ----+----
(PID.TID 0000.0001) //      2 ----+----
(PID.TID 0000.0001) //      1 .........
(PID.TID 0000.0001) //      0 ----+----
(PID.TID 0000.0001) //     -1 ----+----
(PID.TID 0000.0001) // =======================================================
(PID.TID 0000.0001) // END OF FIELD                                          =
(PID.TID 0000.0001) // =======================================================
(PID.TID 0000.0001) 
(PID.TID 0000.0001) // =======================================================
(PID.TID 0000.0001) // Field Model R_low (ini_masks_etc) at iteration          1
(PID.TID 0000.0001) // CMIN =         -5.000000000000000E+03
(PID.TID 0000.0001) // CMAX =         -2.000000000000000E+03
(PID.TID 0000.0001) // CINT =          1.111111111111111E+02
(PID.TID 0000.0001) // SYMBOLS (CMIN->CMAX): -abcdefghijklmnopqrstuvwxyz+
(PID.TID 0000.0001) //                  0.0: .
(PID.TID 0000.0001) // RANGE I (Lo:Hi:Step):(  -1:   7:   1)
(PID.TID 0000.0001) // RANGE J (Lo:Hi:Step):(   7:  -1:  -1)
(PID.TID 0000.0001) // RANGE K (Lo:Hi:Step):(   1:   1:   1)
(PID.TID 0000.0001) // =======================================================
(PID.TID 0000.0001) K =   1
(PID.TID 0000.0001) //
(PID.TID 0000.0001) // |--J--|*01234567
(PID.TID 0000.0001) //      7 ----+----
(PID.TID 0000.0001) //      6 .........
(PID.TID 0000.0001) //      5 ----+----
(PID.TID 0000.0001) //      4 ----+----
(PID.TID 0000.0001) //      3 ----+----
(PID.TID 0000.0001) //      2 ----+----
(PID.TID 0000.0001) //      1 .........
(PID.TID 0000.0001) //      0 ----+----
(PID.TID 0000.0001) //     -1 ----+----
(PID.TID 0000.0001) // =======================================================
(PID.TID 0000.0001) // END OF FIELD                                          =
(PID.TID 0000.0001) // =======================================================
(PID.TID 0000.0001) 
(PID.TID 0000.0001) // =======================================================
(PID.TID 0000.0001) // Field Model Ro_surf (ini_masks_etc) at iteration          1
(PID.TID 0000.0001) // CMIN =          2.273736754432321E-13
(PID.TID 0000.0001) // CMAX =          2.273736754432321E-13
(PID.TID 0000.0001) // CINT =          0.000000000000000E+00
(PID.TID 0000.0001) // SYMBOLS (CMIN->CMAX): -abcdefghijklmnopqrstuvwxyz+
(PID.TID 0000.0001) //                  0.0: .
(PID.TID 0000.0001) // RANGE I (Lo:Hi:Step):(  -1:   7:   1)
(PID.TID 0000.0001) // RANGE J (Lo:Hi:Step):(   7:  -1:  -1)
(PID.TID 0000.0001) // RANGE K (Lo:Hi:Step):(   1:   1:   1)
(PID.TID 0000.0001) // =======================================================
(PID.TID 0000.0001) // =======================================================
(PID.TID 0000.0001) // END OF FIELD                                          =
(PID.TID 0000.0001) // =======================================================
(PID.TID 0000.0001) 
(PID.TID 0000.0001) // =======================================================
(PID.TID 0000.0001) // Field hFacC at iteration          1
(PID.TID 0000.0001) // CMIN =          1.000000000000000E+00
(PID.TID 0000.0001) // CMAX =          1.000000000000000E+00
(PID.TID 0000.0001) // CINT =          0.000000000000000E+00
(PID.TID 0000.0001) // SYMBOLS (CMIN->CMAX): -abcdefghijklmnopqrstuvwxyz+
(PID.TID 0000.0001) //                  0.0: .
(PID.TID 0000.0001) // RANGE I (Lo:Hi:Step):(  -1:   7:   1)
(PID.TID 0000.0001) // RANGE J (Lo:Hi:Step):(   7:  -1:  -1)
(PID.TID 0000.0001) // RANGE K (Lo:Hi:Step):(   1:   1:   1)
(PID.TID 0000.0001) // =======================================================
(PID.TID 0000.0001) // =======================================================
(PID.TID 0000.0001) // END OF FIELD                                          =
(PID.TID 0000.0001) // =======================================================
(PID.TID 0000.0001) 
(PID.TID 0000.0001) // =======================================================
(PID.TID 0000.0001) // Field hFacW at iteration          1
(PID.TID 0000.0001) // CMIN =          1.000000000000000E+00
(PID.TID 0000.0001) // CMAX =          1.000000000000000E+00
(PID.TID 0000.0001) // CINT =          0.000000000000000E+00
(PID.TID 0000.0001) // SYMBOLS (CMIN->CMAX): -abcdefghijklmnopqrstuvwxyz+
(PID.TID 0000.0001) //                  0.0: .
(PID.TID 0000.0001) // RANGE I (Lo:Hi:Step):(  -1:   7:   1)
(PID.TID 0000.0001) // RANGE J (Lo:Hi:Step):(   7:  -1:  -1)
(PID.TID 0000.0001) // RANGE K (Lo:Hi:Step):(   1:   1:   1)
(PID.TID 0000.0001) // =======================================================
(PID.TID 0000.0001) // =======================================================
(PID.TID 0000.0001) // END OF FIELD                                          =
(PID.TID 0000.0001) // =======================================================
(PID.TID 0000.0001) 
(PID.TID 0000.0001) // =======================================================
(PID.TID 0000.0001) // Field hFacS at iteration          1
(PID.TID 0000.0001) // CMIN =          1.000000000000000E+00
(PID.TID 0000.0001) // CMAX =          1.000000000000000E+00
(PID.TID 0000.0001) // CINT =          0.000000000000000E+00
(PID.TID 0000.0001) // SYMBOLS (CMIN->CMAX): -abcdefghijklmnopqrstuvwxyz+
(PID.TID 0000.0001) //                  0.0: .
(PID.TID 0000.0001) // RANGE I (Lo:Hi:Step):(  -1:   7:   1)
(PID.TID 0000.0001) // RANGE J (Lo:Hi:Step):(   7:  -1:  -1)
(PID.TID 0000.0001) // RANGE K (Lo:Hi:Step):(   1:   1:   1)
(PID.TID 0000.0001) // =======================================================
(PID.TID 0000.0001) // =======================================================
(PID.TID 0000.0001) // END OF FIELD                                          =
(PID.TID 0000.0001) // =======================================================
(PID.TID 0000.0001) 
(PID.TID 0000.0001) %MON surfExpanfCori_max           =  -1.0735540000000E-04
(PID.TID 0000.0001) %MON surfExpanfCori_min           =  -1.1783060000000E-04
(PID.TID 0000.0001) %MON surfExpanfCori_mean          =  -1.1259300000000E-04
(PID.TID 0000.0001) %MON surfExpanfCori_sd            =   3.7035424771427E-06
(PID.TID 0000.0001) %MON surfExpanfCoriG_max          =  -1.0866480000000E-04
(PID.TID 0000.0001) %MON surfExpanfCoriG_min          =  -1.1914000000000E-04
(PID.TID 0000.0001) %MON surfExpanfCoriG_mean         =  -1.1390240000000E-04
(PID.TID 0000.0001) %MON surfExpanfCoriG_sd           =   3.7035424771427E-06
(PID.TID 0000.0001) %MON surfExpanfCoriCos_max        =   0.0000000000000E+00
(PID.TID 0000.0001) %MON surfExpanfCoriCos_min        =   0.0000000000000E+00
(PID.TID 0000.0001) %MON surfExpanfCoriCos_mean       =   0.0000000000000E+00
(PID.TID 0000.0001) %MON surfExpanfCoriCos_sd         =   0.0000000000000E+00
(PID.TID 0000.0001) INI_CG2D: CG2D normalisation factor =  1.9999999999999996E-04
(PID.TID 0000.0001) 
                     ctrl_depth_ini: ctrl update R_low,
                                     adding the control vector.
(PID.TID 0000.0001)  MDSREADFIELD: opening file: xx_depth.0000000000.001.001.data
(PID.TID 0000.0001) // =======================================================
(PID.TID 0000.0001) // Field Model Ro_surf (update_masks_etc) at iteration          1
(PID.TID 0000.0001) // CMIN =          2.273736754432321E-13
(PID.TID 0000.0001) // CMAX =          2.273736754432321E-13
(PID.TID 0000.0001) // CINT =          0.000000000000000E+00
(PID.TID 0000.0001) // SYMBOLS (CMIN->CMAX): -abcdefghijklmnopqrstuvwxyz+
(PID.TID 0000.0001) //                  0.0: .
(PID.TID 0000.0001) // RANGE I (Lo:Hi:Step):(  -1:   7:   1)
(PID.TID 0000.0001) // RANGE J (Lo:Hi:Step):(   7:  -1:  -1)
(PID.TID 0000.0001) // RANGE K (Lo:Hi:Step):(   1:   1:   1)
(PID.TID 0000.0001) // =======================================================
(PID.TID 0000.0001) // =======================================================
(PID.TID 0000.0001) // END OF FIELD                                          =
(PID.TID 0000.0001) // =======================================================
(PID.TID 0000.0001) 
(PID.TID 0000.0001) // =======================================================
(PID.TID 0000.0001) // Field hFacC at iteration          1
(PID.TID 0000.0001) // CMIN =          1.000000000000000E+00
(PID.TID 0000.0001) // CMAX =          1.000000000000000E+00
(PID.TID 0000.0001) // CINT =          0.000000000000000E+00
(PID.TID 0000.0001) // SYMBOLS (CMIN->CMAX): -abcdefghijklmnopqrstuvwxyz+
(PID.TID 0000.0001) //                  0.0: .
(PID.TID 0000.0001) // RANGE I (Lo:Hi:Step):(  -1:   7:   1)
(PID.TID 0000.0001) // RANGE J (Lo:Hi:Step):(   7:  -1:  -1)
(PID.TID 0000.0001) // RANGE K (Lo:Hi:Step):(   1:   1:   1)
(PID.TID 0000.0001) // =======================================================
(PID.TID 0000.0001) // =======================================================
(PID.TID 0000.0001) // END OF FIELD                                          =
(PID.TID 0000.0001) // =======================================================
(PID.TID 0000.0001) 
(PID.TID 0000.0001) // =======================================================
(PID.TID 0000.0001) // Field hFacW at iteration          1
(PID.TID 0000.0001) // CMIN =          1.000000000000000E+00
(PID.TID 0000.0001) // CMAX =          1.000000000000000E+00
(PID.TID 0000.0001) // CINT =          0.000000000000000E+00
(PID.TID 0000.0001) // SYMBOLS (CMIN->CMAX): -abcdefghijklmnopqrstuvwxyz+
(PID.TID 0000.0001) //                  0.0: .
(PID.TID 0000.0001) // RANGE I (Lo:Hi:Step):(  -1:   7:   1)
(PID.TID 0000.0001) // RANGE J (Lo:Hi:Step):(   7:  -1:  -1)
(PID.TID 0000.0001) // RANGE K (Lo:Hi:Step):(   1:   1:   1)
(PID.TID 0000.0001) // =======================================================
(PID.TID 0000.0001) // =======================================================
(PID.TID 0000.0001) // END OF FIELD                                          =
(PID.TID 0000.0001) // =======================================================
(PID.TID 0000.0001) 
(PID.TID 0000.0001) // =======================================================
(PID.TID 0000.0001) // Field hFacS at iteration          1
(PID.TID 0000.0001) // CMIN =          1.000000000000000E+00
(PID.TID 0000.0001) // CMAX =          1.000000000000000E+00
(PID.TID 0000.0001) // CINT =          0.000000000000000E+00
(PID.TID 0000.0001) // SYMBOLS (CMIN->CMAX): -abcdefghijklmnopqrstuvwxyz+
(PID.TID 0000.0001) //                  0.0: .
(PID.TID 0000.0001) // RANGE I (Lo:Hi:Step):(  -1:   7:   1)
(PID.TID 0000.0001) // RANGE J (Lo:Hi:Step):(   7:  -1:  -1)
(PID.TID 0000.0001) // RANGE K (Lo:Hi:Step):(   1:   1:   1)
(PID.TID 0000.0001) // =======================================================
(PID.TID 0000.0001) // =======================================================
(PID.TID 0000.0001) // END OF FIELD                                          =
(PID.TID 0000.0001) // =======================================================
(PID.TID 0000.0001) 
(PID.TID 0000.0001) // =======================================================
(PID.TID 0000.0001) // Field Initial Temperature at iteration          1
(PID.TID 0000.0001) // CMIN =          4.000000000000000E+00
(PID.TID 0000.0001) // CMAX =          4.000000000000000E+00
(PID.TID 0000.0001) // CINT =          0.000000000000000E+00
(PID.TID 0000.0001) // SYMBOLS (CMIN->CMAX): -abcdefghijklmnopqrstuvwxyz+
(PID.TID 0000.0001) //                  0.0: .
(PID.TID 0000.0001) // RANGE I (Lo:Hi:Step):(   1:   5:   1)
(PID.TID 0000.0001) // RANGE J (Lo:Hi:Step):(   5:   1:  -1)
(PID.TID 0000.0001) // RANGE K (Lo:Hi:Step):(   1:   1:   1)
(PID.TID 0000.0001) // =======================================================
(PID.TID 0000.0001) // =======================================================
(PID.TID 0000.0001) // END OF FIELD                                          =
(PID.TID 0000.0001) // =======================================================
(PID.TID 0000.0001) 
(PID.TID 0000.0001) // =======================================================
(PID.TID 0000.0001) // Field Initial Salinity at iteration          1
(PID.TID 0000.0001) // CMIN =          3.500000000000000E+01
(PID.TID 0000.0001) // CMAX =          3.500000000000000E+01
(PID.TID 0000.0001) // CINT =          0.000000000000000E+00
(PID.TID 0000.0001) // SYMBOLS (CMIN->CMAX): -abcdefghijklmnopqrstuvwxyz+
(PID.TID 0000.0001) //                  0.0: .
(PID.TID 0000.0001) // RANGE I (Lo:Hi:Step):(   1:   5:   1)
(PID.TID 0000.0001) // RANGE J (Lo:Hi:Step):(   5:   1:  -1)
(PID.TID 0000.0001) // RANGE K (Lo:Hi:Step):(   1:   1:   1)
(PID.TID 0000.0001) // =======================================================
(PID.TID 0000.0001) // =======================================================
(PID.TID 0000.0001) // END OF FIELD                                          =
(PID.TID 0000.0001) // =======================================================
(PID.TID 0000.0001) 
(PID.TID 0000.0001) Start initial hydrostatic pressure computation
(PID.TID 0000.0001) Pressure is predetermined for buoyancyRelation OCEANIC
(PID.TID 0000.0001) 
(PID.TID 0000.0001)  MDSREADFIELD: opening global file: windx.sin_y
(PID.TID 0000.0001) // =======================================================
(PID.TID 0000.0001) // Model current state
(PID.TID 0000.0001) // =======================================================
(PID.TID 0000.0001) 
 cg2d: Sum(rhs),rhsMax =   0.00000000000000E+00  0.00000000000000E+00
 cg2d: Sum(rhs),rhsMax =   4.68375338513738E-16  2.62483626325265E-03
 cg2d: Sum(rhs),rhsMax =   2.23779328401008E-16  5.13362635375895E-03
 cg2d: Sum(rhs),rhsMax =   2.27248775352962E-16  7.16168461109957E-03
 cg2d: Sum(rhs),rhsMax =   1.38777878078145E-16  9.29466758463030E-03
 cg2d: Sum(rhs),rhsMax =   4.47558656802016E-16  1.15304357072645E-02
 cg2d: Sum(rhs),rhsMax =   9.75781955236954E-17  1.37809802637542E-02
 cg2d: Sum(rhs),rhsMax =  -3.15719672627779E-16  1.60011247739079E-02
 cg2d: Sum(rhs),rhsMax =   2.08166817117217E-17  1.82027337061713E-02
 cg2d: Sum(rhs),rhsMax =  -5.82867087928207E-16  2.04493559910027E-02
 cg2d: Sum(rhs),rhsMax =  -6.80011602582908E-16  2.25706026709078E-02
 cg2d: Sum(rhs),rhsMax =  -6.66133814775094E-16  2.45301656110366E-02
 cg2d: Sum(rhs),rhsMax =  -4.71844785465692E-16  2.63097943347101E-02
 cg2d: Sum(rhs),rhsMax =  -8.74300631892311E-16  2.79110496251941E-02
 cg2d: Sum(rhs),rhsMax =  -1.11716191852906E-15  2.93538601509426E-02
 cg2d: Sum(rhs),rhsMax =  -5.68989300120393E-16  3.06720438342202E-02
 cg2d: Sum(rhs),rhsMax =   4.71844785465692E-16  3.19067815954507E-02
 cg2d: Sum(rhs),rhsMax =   2.01227923213310E-16  3.30992667089454E-02
 cg2d: Sum(rhs),rhsMax =   6.10622663543836E-16  3.42837432387712E-02
 cg2d: Sum(rhs),rhsMax =   1.07552855510562E-15  3.54819650413486E-02
 cg2d: Sum(rhs),rhsMax =   1.31838984174237E-15  3.66998058168995E-02
 cg2d: Sum(rhs),rhsMax =   9.92261828258734E-16  3.79264045298203E-02
 cg2d: Sum(rhs),rhsMax =   8.04911692853238E-16  3.91358858282193E-02
 cg2d: Sum(rhs),rhsMax =   1.31838984174237E-15  4.02913639285602E-02
 cg2d: Sum(rhs),rhsMax =   3.46944695195361E-16  4.13506294866734E-02
 cg2d: Sum(rhs),rhsMax =   3.46944695195361E-16  4.22726607106484E-02
 cg2d: Sum(rhs),rhsMax =  -8.32667268468867E-17  4.30239435969674E-02
 cg2d: Sum(rhs),rhsMax =  -1.38777878078145E-16  4.35835863308293E-02
 cg2d: Sum(rhs),rhsMax =  -9.71445146547012E-17  4.39463979987317E-02
 cg2d: Sum(rhs),rhsMax =   2.35922392732846E-16  4.41234516561917E-02
 cg2d: Sum(rhs),rhsMax =   7.07767178198537E-16  4.41400964638382E-02
 cg2d: Sum(rhs),rhsMax =   4.30211422042248E-16  4.40318244190552E-02
 cg2d: Sum(rhs),rhsMax =   4.30211422042248E-16  4.38387400796080E-02
 cg2d: Sum(rhs),rhsMax =   2.49800180540660E-16  4.54379560297976E-02
 cg2d: Sum(rhs),rhsMax =   3.60822483003176E-16  4.77259341387093E-02
 cg2d: Sum(rhs),rhsMax =  -1.52655665885959E-16  4.99949942663883E-02
 cg2d: Sum(rhs),rhsMax =   3.05311331771918E-16  5.22073346016248E-02
 cg2d: Sum(rhs),rhsMax =  -5.55111512312578E-17  5.43317154689352E-02
 cg2d: Sum(rhs),rhsMax =  -5.27355936696949E-16  5.63476433919200E-02
 cg2d: Sum(rhs),rhsMax =  -1.11022302462516E-15  5.82478247047038E-02
 cg2d: Sum(rhs),rhsMax =  -7.21644966006352E-16  6.00385226912255E-02
 cg2d: Sum(rhs),rhsMax =  -6.66133814775094E-16  6.17377928530323E-02
 cg2d: Sum(rhs),rhsMax =  -1.08246744900953E-15  6.33719182180931E-02
 cg2d: Sum(rhs),rhsMax =  -1.05471187339390E-15  6.49706560868813E-02
 cg2d: Sum(rhs),rhsMax =  -9.71445146547012E-16  6.65620854194305E-02
 cg2d: Sum(rhs),rhsMax =  -1.13797860024079E-15  6.81678811285411E-02
 cg2d: Sum(rhs),rhsMax =  -1.55431223447522E-15  6.97997395294841E-02
 cg2d: Sum(rhs),rhsMax =  -1.52655665885959E-15  7.14574666562183E-02
 cg2d: Sum(rhs),rhsMax =  -1.22124532708767E-15  7.31289627063457E-02
 cg2d: Sum(rhs),rhsMax =  -1.88737914186277E-15  7.47920398727330E-02
 cg2d: Sum(rhs),rhsMax =  -1.97064586870965E-15  7.64177403053006E-02
 cg2d: Sum(rhs),rhsMax =  -1.41553435639707E-15  7.79746097359227E-02
 cg2d: Sum(rhs),rhsMax =  -1.41553435639707E-15  7.94332547049317E-02
 cg2d: Sum(rhs),rhsMax =  -1.41553435639707E-15  8.07704825399504E-02
 cg2d: Sum(rhs),rhsMax =  -9.15933995315754E-16  8.19723981212481E-02
 cg2d: Sum(rhs),rhsMax =  -8.32667268468867E-16  8.30360017765229E-02
 cg2d: Sum(rhs),rhsMax =  -6.80011602582908E-16  8.39690747552140E-02
 cg2d: Sum(rhs),rhsMax =  -6.52256026967279E-16  8.47884145861474E-02
 cg2d: Sum(rhs),rhsMax =  -6.93889390390723E-17  8.55167454274592E-02
 cg2d: Sum(rhs),rhsMax =  -2.35922392732846E-16  8.61788323132461E-02
 cg2d: Sum(rhs),rhsMax =   1.80411241501588E-16  8.67974383649327E-02
 cg2d: Sum(rhs),rhsMax =  -1.24900090270330E-16  8.73897650071314E-02
 cg2d: Sum(rhs),rhsMax =  -4.44089209850063E-16  8.79649128290892E-02
 cg2d: Sum(rhs),rhsMax =  -6.24500451351651E-16  8.85227187590750E-02
 cg2d: Sum(rhs),rhsMax =  -8.18789480661053E-16  8.90540982672592E-02
 cg2d: Sum(rhs),rhsMax =  -5.41233724504764E-16  8.95427868661144E-02
 cg2d: Sum(rhs),rhsMax =  -1.11022302462516E-16  8.99681674368912E-02
 cg2d: Sum(rhs),rhsMax =  -1.87350135405495E-16  9.03087162677793E-02
 cg2d: Sum(rhs),rhsMax =   1.38777878078145E-17  9.05455201692674E-02
 cg2d: Sum(rhs),rhsMax =   1.87350135405495E-16  9.06653193824685E-02
 cg2d: Sum(rhs),rhsMax =   2.70616862252382E-16  9.06626155703369E-02
 cg2d: Sum(rhs),rhsMax =  -4.09394740330526E-16  9.05405388659924E-02
 cg2d: Sum(rhs),rhsMax =  -8.84708972748172E-16  9.03103692764396E-02
 cg2d: Sum(rhs),rhsMax =  -1.61676227961038E-15  8.99898233743538E-02
 cg2d: Sum(rhs),rhsMax =  -1.50227053019591E-15  8.96004111957960E-02
 cg2d: Sum(rhs),rhsMax =  -1.76865900397560E-15  8.91643080066845E-02
 cg2d: Sum(rhs),rhsMax =  -1.55604695795120E-15  8.87012486677379E-02
 cg2d: Sum(rhs),rhsMax =  -2.07819872422021E-15  8.82259308735816E-02
 cg2d: Sum(rhs),rhsMax =  -1.93248195223816E-15  8.77463151152341E-02
 cg2d: Sum(rhs),rhsMax =  -2.28289609438548E-15  8.72630539838200E-02
 cg2d: Sum(rhs),rhsMax =  -2.19269047363468E-15  8.67700991333252E-02
 cg2d: Sum(rhs),rhsMax =  -2.16840434497101E-15  8.62563506094102E-02
 cg2d: Sum(rhs),rhsMax =  -2.62290189567693E-15  8.57080574832559E-02
 cg2d: Sum(rhs),rhsMax =  -3.05484804119516E-15  8.51115722087289E-02
 cg2d: Sum(rhs),rhsMax =  -3.43995665286201E-15  8.44560176163473E-02
 cg2d: Sum(rhs),rhsMax =  -3.96731258955896E-15  8.37354499581348E-02
 cg2d: Sum(rhs),rhsMax =  -3.94129173741931E-15  8.29501894777156E-02
 cg2d: Sum(rhs),rhsMax =  -4.19456136491192E-15  8.21071277893914E-02
 cg2d: Sum(rhs),rhsMax =  -4.81732709278759E-15  8.12189870789349E-02
 cg2d: Sum(rhs),rhsMax =  -5.08273978461204E-15  8.03026729586989E-02
 cg2d: Sum(rhs),rhsMax =  -4.91620633091827E-15  7.93770033906973E-02
 cg2d: Sum(rhs),rhsMax =  -5.07927033766009E-15  7.84601876859758E-02
 cg2d: Sum(rhs),rhsMax =  -4.64212002171394E-15  7.75674583706345E-02
 cg2d: Sum(rhs),rhsMax =  -4.18068357710411E-15  7.67092221667397E-02
 cg2d: Sum(rhs),rhsMax =  -3.95863897217907E-15  7.58900031403809E-02
 cg2d: Sum(rhs),rhsMax =  -4.21884749357559E-15  7.51083186739768E-02
 cg2d: Sum(rhs),rhsMax =  -4.10782519111308E-15  7.43574798028800E-02
 cg2d: Sum(rhs),rhsMax =  -4.23272528138341E-15  7.36271650915523E-02
 cg2d: Sum(rhs),rhsMax =  -3.69149155687865E-15  7.29055026171544E-02
 cg2d: Sum(rhs),rhsMax =  -3.49026363366534E-15  7.21813237615471E-02
 --> objf_test(bi,bj)   = -0.849803578115994E+00
 --> objf_tracer(bi,bj) =  0.000000000000000E+00
 --> objf_atl(bi,bj)    =  0.000000000000000E+00
  local fc = -0.849803578115994E+00
 global fc = -0.849803578115994E+00
(PID.TID 0000.0001)  MDSREADFIELD: opening file: xx_depth.0000000000.001.001.data
 grad-res -------------------------------
 grad-res     0    3    3    2    1   -.849803598E+00 -.849803618E+00 -.849803578E+00
 grad-res     0    3    3    3   20   -.198323305E-03 -.198279122E-03 0.222781474E-03
(PID.TID 0000.0001)       precision_grdchk_result ADM    -8.49803597943908E-01    -1.98323304768158E-04
 ph-grd  ierr ---------------------------
 ph-grd  ierr =  0, icomp =  3, ichknum =  3
(PID.TID 0000.0001)  MDSREADFIELD: opening file: adxx_depth.0000000000.001.001.data
(PID.TID 0000.0001)  MDSREADFIELD: opening file: xx_depth.0000000000.001.001.data
(PID.TID 0000.0001)  MDSREADFIELD: opening global file: walls.bigRidge
(PID.TID 0000.0001) // =======================================================
(PID.TID 0000.0001) // Field Bottom depths (ini_depths) at iteration          1
(PID.TID 0000.0001) // CMIN =         -5.000000000000000E+03
(PID.TID 0000.0001) // CMAX =         -2.000000000000000E+03
(PID.TID 0000.0001) // CINT =          1.111111111111111E+02
(PID.TID 0000.0001) // SYMBOLS (CMIN->CMAX): -abcdefghijklmnopqrstuvwxyz+
(PID.TID 0000.0001) //                  0.0: .
(PID.TID 0000.0001) // RANGE I (Lo:Hi:Step):(  -1:   7:   1)
(PID.TID 0000.0001) // RANGE J (Lo:Hi:Step):(   7:  -1:  -1)
(PID.TID 0000.0001) // RANGE K (Lo:Hi:Step):(   1:   1:   1)
(PID.TID 0000.0001) // =======================================================
(PID.TID 0000.0001) K =   1
(PID.TID 0000.0001) //
(PID.TID 0000.0001) // |--J--|*01234567
(PID.TID 0000.0001) //      7 ----+----
(PID.TID 0000.0001) //      6 .........
(PID.TID 0000.0001) //      5 ----+----
(PID.TID 0000.0001) //      4 ----+----
(PID.TID 0000.0001) //      3 ----+----
(PID.TID 0000.0001) //      2 ----+----
(PID.TID 0000.0001) //      1 .........
(PID.TID 0000.0001) //      0 ----+----
(PID.TID 0000.0001) //     -1 ----+----
(PID.TID 0000.0001) // =======================================================
(PID.TID 0000.0001) // END OF FIELD                                          =
(PID.TID 0000.0001) // =======================================================
(PID.TID 0000.0001) 
(PID.TID 0000.0001) // =======================================================
(PID.TID 0000.0001) // Field Model R_low (ini_masks_etc) at iteration          1
(PID.TID 0000.0001) // CMIN =         -5.000000000000000E+03
(PID.TID 0000.0001) // CMAX =         -2.000000000000000E+03
(PID.TID 0000.0001) // CINT =          1.111111111111111E+02
(PID.TID 0000.0001) // SYMBOLS (CMIN->CMAX): -abcdefghijklmnopqrstuvwxyz+
(PID.TID 0000.0001) //                  0.0: .
(PID.TID 0000.0001) // RANGE I (Lo:Hi:Step):(  -1:   7:   1)
(PID.TID 0000.0001) // RANGE J (Lo:Hi:Step):(   7:  -1:  -1)
(PID.TID 0000.0001) // RANGE K (Lo:Hi:Step):(   1:   1:   1)
(PID.TID 0000.0001) // =======================================================
(PID.TID 0000.0001) K =   1
(PID.TID 0000.0001) //
(PID.TID 0000.0001) // |--J--|*01234567
(PID.TID 0000.0001) //      7 ----+----
(PID.TID 0000.0001) //      6 .........
(PID.TID 0000.0001) //      5 ----+----
(PID.TID 0000.0001) //      4 ----+----
(PID.TID 0000.0001) //      3 ----+----
(PID.TID 0000.0001) //      2 ----+----
(PID.TID 0000.0001) //      1 .........
(PID.TID 0000.0001) //      0 ----+----
(PID.TID 0000.0001) //     -1 ----+----
(PID.TID 0000.0001) // =======================================================
(PID.TID 0000.0001) // END OF FIELD                                          =
(PID.TID 0000.0001) // =======================================================
(PID.TID 0000.0001) 
(PID.TID 0000.0001) // =======================================================
(PID.TID 0000.0001) // Field Model Ro_surf (ini_masks_etc) at iteration          1
(PID.TID 0000.0001) // CMIN =          2.273736754432321E-13
(PID.TID 0000.0001) // CMAX =          2.273736754432321E-13
(PID.TID 0000.0001) // CINT =          0.000000000000000E+00
(PID.TID 0000.0001) // SYMBOLS (CMIN->CMAX): -abcdefghijklmnopqrstuvwxyz+
(PID.TID 0000.0001) //                  0.0: .
(PID.TID 0000.0001) // RANGE I (Lo:Hi:Step):(  -1:   7:   1)
(PID.TID 0000.0001) // RANGE J (Lo:Hi:Step):(   7:  -1:  -1)
(PID.TID 0000.0001) // RANGE K (Lo:Hi:Step):(   1:   1:   1)
(PID.TID 0000.0001) // =======================================================
(PID.TID 0000.0001) // =======================================================
(PID.TID 0000.0001) // END OF FIELD                                          =
(PID.TID 0000.0001) // =======================================================
(PID.TID 0000.0001) 
(PID.TID 0000.0001) // =======================================================
(PID.TID 0000.0001) // Field hFacC at iteration          1
(PID.TID 0000.0001) // CMIN =          1.000000000000000E+00
(PID.TID 0000.0001) // CMAX =          1.000000000000000E+00
(PID.TID 0000.0001) // CINT =          0.000000000000000E+00
(PID.TID 0000.0001) // SYMBOLS (CMIN->CMAX): -abcdefghijklmnopqrstuvwxyz+
(PID.TID 0000.0001) //                  0.0: .
(PID.TID 0000.0001) // RANGE I (Lo:Hi:Step):(  -1:   7:   1)
(PID.TID 0000.0001) // RANGE J (Lo:Hi:Step):(   7:  -1:  -1)
(PID.TID 0000.0001) // RANGE K (Lo:Hi:Step):(   1:   1:   1)
(PID.TID 0000.0001) // =======================================================
(PID.TID 0000.0001) // =======================================================
(PID.TID 0000.0001) // END OF FIELD                                          =
(PID.TID 0000.0001) // =======================================================
(PID.TID 0000.0001) 
(PID.TID 0000.0001) // =======================================================
(PID.TID 0000.0001) // Field hFacW at iteration          1
(PID.TID 0000.0001) // CMIN =          1.000000000000000E+00
(PID.TID 0000.0001) // CMAX =          1.000000000000000E+00
(PID.TID 0000.0001) // CINT =          0.000000000000000E+00
(PID.TID 0000.0001) // SYMBOLS (CMIN->CMAX): -abcdefghijklmnopqrstuvwxyz+
(PID.TID 0000.0001) //                  0.0: .
(PID.TID 0000.0001) // RANGE I (Lo:Hi:Step):(  -1:   7:   1)
(PID.TID 0000.0001) // RANGE J (Lo:Hi:Step):(   7:  -1:  -1)
(PID.TID 0000.0001) // RANGE K (Lo:Hi:Step):(   1:   1:   1)
(PID.TID 0000.0001) // =======================================================
(PID.TID 0000.0001) // =======================================================
(PID.TID 0000.0001) // END OF FIELD                                          =
(PID.TID 0000.0001) // =======================================================
(PID.TID 0000.0001) 
(PID.TID 0000.0001) // =======================================================
(PID.TID 0000.0001) // Field hFacS at iteration          1
(PID.TID 0000.0001) // CMIN =          1.000000000000000E+00
(PID.TID 0000.0001) // CMAX =          1.000000000000000E+00
(PID.TID 0000.0001) // CINT =          0.000000000000000E+00
(PID.TID 0000.0001) // SYMBOLS (CMIN->CMAX): -abcdefghijklmnopqrstuvwxyz+
(PID.TID 0000.0001) //                  0.0: .
(PID.TID 0000.0001) // RANGE I (Lo:Hi:Step):(  -1:   7:   1)
(PID.TID 0000.0001) // RANGE J (Lo:Hi:Step):(   7:  -1:  -1)
(PID.TID 0000.0001) // RANGE K (Lo:Hi:Step):(   1:   1:   1)
(PID.TID 0000.0001) // =======================================================
(PID.TID 0000.0001) // =======================================================
(PID.TID 0000.0001) // END OF FIELD                                          =
(PID.TID 0000.0001) // =======================================================
(PID.TID 0000.0001) 
(PID.TID 0000.0001) %MON surfExpanfCori_max           =  -1.0735540000000E-04
(PID.TID 0000.0001) %MON surfExpanfCori_min           =  -1.1783060000000E-04
(PID.TID 0000.0001) %MON surfExpanfCori_mean          =  -1.1259300000000E-04
(PID.TID 0000.0001) %MON surfExpanfCori_sd            =   3.7035424771427E-06
(PID.TID 0000.0001) %MON surfExpanfCoriG_max          =  -1.0866480000000E-04
(PID.TID 0000.0001) %MON surfExpanfCoriG_min          =  -1.1914000000000E-04
(PID.TID 0000.0001) %MON surfExpanfCoriG_mean         =  -1.1390240000000E-04
(PID.TID 0000.0001) %MON surfExpanfCoriG_sd           =   3.7035424771427E-06
(PID.TID 0000.0001) %MON surfExpanfCoriCos_max        =   0.0000000000000E+00
(PID.TID 0000.0001) %MON surfExpanfCoriCos_min        =   0.0000000000000E+00
(PID.TID 0000.0001) %MON surfExpanfCoriCos_mean       =   0.0000000000000E+00
(PID.TID 0000.0001) %MON surfExpanfCoriCos_sd         =   0.0000000000000E+00
(PID.TID 0000.0001) INI_CG2D: CG2D normalisation factor =  1.9999999999999996E-04
(PID.TID 0000.0001) 
                     ctrl_depth_ini: ctrl update R_low,
                                     adding the control vector.
(PID.TID 0000.0001)  MDSREADFIELD: opening file: xx_depth.0000000000.001.001.data
(PID.TID 0000.0001) // =======================================================
(PID.TID 0000.0001) // Field Model Ro_surf (update_masks_etc) at iteration          1
(PID.TID 0000.0001) // CMIN =          2.273736754432321E-13
(PID.TID 0000.0001) // CMAX =          2.273736754432321E-13
(PID.TID 0000.0001) // CINT =          0.000000000000000E+00
(PID.TID 0000.0001) // SYMBOLS (CMIN->CMAX): -abcdefghijklmnopqrstuvwxyz+
(PID.TID 0000.0001) //                  0.0: .
(PID.TID 0000.0001) // RANGE I (Lo:Hi:Step):(  -1:   7:   1)
(PID.TID 0000.0001) // RANGE J (Lo:Hi:Step):(   7:  -1:  -1)
(PID.TID 0000.0001) // RANGE K (Lo:Hi:Step):(   1:   1:   1)
(PID.TID 0000.0001) // =======================================================
(PID.TID 0000.0001) // =======================================================
(PID.TID 0000.0001) // END OF FIELD                                          =
(PID.TID 0000.0001) // =======================================================
(PID.TID 0000.0001) 
(PID.TID 0000.0001) // =======================================================
(PID.TID 0000.0001) // Field hFacC at iteration          1
(PID.TID 0000.0001) // CMIN =          1.000000000000000E+00
(PID.TID 0000.0001) // CMAX =          1.000000000000000E+00
(PID.TID 0000.0001) // CINT =          0.000000000000000E+00
(PID.TID 0000.0001) // SYMBOLS (CMIN->CMAX): -abcdefghijklmnopqrstuvwxyz+
(PID.TID 0000.0001) //                  0.0: .
(PID.TID 0000.0001) // RANGE I (Lo:Hi:Step):(  -1:   7:   1)
(PID.TID 0000.0001) // RANGE J (Lo:Hi:Step):(   7:  -1:  -1)
(PID.TID 0000.0001) // RANGE K (Lo:Hi:Step):(   1:   1:   1)
(PID.TID 0000.0001) // =======================================================
(PID.TID 0000.0001) // =======================================================
(PID.TID 0000.0001) // END OF FIELD                                          =
(PID.TID 0000.0001) // =======================================================
(PID.TID 0000.0001) 
(PID.TID 0000.0001) // =======================================================
(PID.TID 0000.0001) // Field hFacW at iteration          1
(PID.TID 0000.0001) // CMIN =          1.000000000000000E+00
(PID.TID 0000.0001) // CMAX =          1.000000000000000E+00
(PID.TID 0000.0001) // CINT =          0.000000000000000E+00
(PID.TID 0000.0001) // SYMBOLS (CMIN->CMAX): -abcdefghijklmnopqrstuvwxyz+
(PID.TID 0000.0001) //                  0.0: .
(PID.TID 0000.0001) // RANGE I (Lo:Hi:Step):(  -1:   7:   1)
(PID.TID 0000.0001) // RANGE J (Lo:Hi:Step):(   7:  -1:  -1)
(PID.TID 0000.0001) // RANGE K (Lo:Hi:Step):(   1:   1:   1)
(PID.TID 0000.0001) // =======================================================
(PID.TID 0000.0001) // =======================================================
(PID.TID 0000.0001) // END OF FIELD                                          =
(PID.TID 0000.0001) // =======================================================
(PID.TID 0000.0001) 
(PID.TID 0000.0001) // =======================================================
(PID.TID 0000.0001) // Field hFacS at iteration          1
(PID.TID 0000.0001) // CMIN =          1.000000000000000E+00
(PID.TID 0000.0001) // CMAX =          1.000000000000000E+00
(PID.TID 0000.0001) // CINT =          0.000000000000000E+00
(PID.TID 0000.0001) // SYMBOLS (CMIN->CMAX): -abcdefghijklmnopqrstuvwxyz+
(PID.TID 0000.0001) //                  0.0: .
(PID.TID 0000.0001) // RANGE I (Lo:Hi:Step):(  -1:   7:   1)
(PID.TID 0000.0001) // RANGE J (Lo:Hi:Step):(   7:  -1:  -1)
(PID.TID 0000.0001) // RANGE K (Lo:Hi:Step):(   1:   1:   1)
(PID.TID 0000.0001) // =======================================================
(PID.TID 0000.0001) // =======================================================
(PID.TID 0000.0001) // END OF FIELD                                          =
(PID.TID 0000.0001) // =======================================================
(PID.TID 0000.0001) 
(PID.TID 0000.0001) // =======================================================
(PID.TID 0000.0001) // Field Initial Temperature at iteration          1
(PID.TID 0000.0001) // CMIN =          4.000000000000000E+00
(PID.TID 0000.0001) // CMAX =          4.000000000000000E+00
(PID.TID 0000.0001) // CINT =          0.000000000000000E+00
(PID.TID 0000.0001) // SYMBOLS (CMIN->CMAX): -abcdefghijklmnopqrstuvwxyz+
(PID.TID 0000.0001) //                  0.0: .
(PID.TID 0000.0001) // RANGE I (Lo:Hi:Step):(   1:   5:   1)
(PID.TID 0000.0001) // RANGE J (Lo:Hi:Step):(   5:   1:  -1)
(PID.TID 0000.0001) // RANGE K (Lo:Hi:Step):(   1:   1:   1)
(PID.TID 0000.0001) // =======================================================
(PID.TID 0000.0001) // =======================================================
(PID.TID 0000.0001) // END OF FIELD                                          =
(PID.TID 0000.0001) // =======================================================
(PID.TID 0000.0001) 
(PID.TID 0000.0001) // =======================================================
(PID.TID 0000.0001) // Field Initial Salinity at iteration          1
(PID.TID 0000.0001) // CMIN =          3.500000000000000E+01
(PID.TID 0000.0001) // CMAX =          3.500000000000000E+01
(PID.TID 0000.0001) // CINT =          0.000000000000000E+00
(PID.TID 0000.0001) // SYMBOLS (CMIN->CMAX): -abcdefghijklmnopqrstuvwxyz+
(PID.TID 0000.0001) //                  0.0: .
(PID.TID 0000.0001) // RANGE I (Lo:Hi:Step):(   1:   5:   1)
(PID.TID 0000.0001) // RANGE J (Lo:Hi:Step):(   5:   1:  -1)
(PID.TID 0000.0001) // RANGE K (Lo:Hi:Step):(   1:   1:   1)
(PID.TID 0000.0001) // =======================================================
(PID.TID 0000.0001) // =======================================================
(PID.TID 0000.0001) // END OF FIELD                                          =
(PID.TID 0000.0001) // =======================================================
(PID.TID 0000.0001) 
(PID.TID 0000.0001) Start initial hydrostatic pressure computation
(PID.TID 0000.0001) Pressure is predetermined for buoyancyRelation OCEANIC
(PID.TID 0000.0001) 
(PID.TID 0000.0001)  MDSREADFIELD: opening global file: windx.sin_y
(PID.TID 0000.0001) // =======================================================
(PID.TID 0000.0001) // Model current state
(PID.TID 0000.0001) // =======================================================
(PID.TID 0000.0001) 
 cg2d: Sum(rhs),rhsMax =   0.00000000000000E+00  0.00000000000000E+00
 cg2d: Sum(rhs),rhsMax =   4.68375338513738E-16  2.62483626325265E-03
 cg2d: Sum(rhs),rhsMax =   5.53376788836601E-16  5.13362633360933E-03
 cg2d: Sum(rhs),rhsMax =  -4.49293380277993E-16  7.16168459328184E-03
 cg2d: Sum(rhs),rhsMax =  -8.26595736302949E-16  9.29466755758174E-03
 cg2d: Sum(rhs),rhsMax =  -2.46330733588707E-16  1.15304356741254E-02
 cg2d: Sum(rhs),rhsMax =  -9.45857975276354E-16  1.37809802248962E-02
 cg2d: Sum(rhs),rhsMax =  -5.41233724504764E-16  1.60011247304829E-02
 cg2d: Sum(rhs),rhsMax =  -4.02455846426619E-16  1.82027338426727E-02
 cg2d: Sum(rhs),rhsMax =  -1.52655665885959E-16  2.04493561373781E-02
 cg2d: Sum(rhs),rhsMax =  -3.88578058618805E-16  2.25706028237357E-02
 cg2d: Sum(rhs),rhsMax =  -1.63757896132211E-15  2.45301657671860E-02
 cg2d: Sum(rhs),rhsMax =  -1.41553435639707E-15  2.63097944915566E-02
 cg2d: Sum(rhs),rhsMax =  -1.09634523681734E-15  2.79110497807286E-02
 cg2d: Sum(rhs),rhsMax =  -8.39606162372775E-16  2.93538603037383E-02
 cg2d: Sum(rhs),rhsMax =  -8.18789480661053E-16  3.06720439832759E-02
 cg2d: Sum(rhs),rhsMax =  -1.37390099297363E-15  3.19067817399307E-02
 cg2d: Sum(rhs),rhsMax =  -1.65145674912992E-15  3.30992668478622E-02
 cg2d: Sum(rhs),rhsMax =  -2.08860706507608E-15  3.42837433706611E-02
 cg2d: Sum(rhs),rhsMax =  -1.60288449180257E-15  3.54819651639980E-02
 cg2d: Sum(rhs),rhsMax =  -1.28369537222284E-15  3.66998059271653E-02
 cg2d: Sum(rhs),rhsMax =  -1.59594559789866E-15  3.79264046235768E-02
 cg2d: Sum(rhs),rhsMax =  -2.23432383705813E-15  3.91358859004399E-02
 cg2d: Sum(rhs),rhsMax =  -2.44249065417534E-15  4.02913639735223E-02
 cg2d: Sum(rhs),rhsMax =  -2.85882428840978E-15  4.13506294982585E-02
 cg2d: Sum(rhs),rhsMax =  -3.51108031537706E-15  4.22726606826924E-02
 cg2d: Sum(rhs),rhsMax =  -3.62210261783957E-15  4.30239435236154E-02
 cg2d: Sum(rhs),rhsMax =  -3.27515792264421E-15  4.35835862068442E-02
 cg2d: Sum(rhs),rhsMax =  -3.24740234702858E-15  4.39463978197202E-02
 cg2d: Sum(rhs),rhsMax =  -2.74780198594726E-15  4.41234514187197E-02
 cg2d: Sum(rhs),rhsMax =  -2.41473507855972E-15  4.41400961654247E-02
 cg2d: Sum(rhs),rhsMax =  -2.69229083471600E-15  4.40318240580562E-02
 cg2d: Sum(rhs),rhsMax =  -3.01147995429574E-15  4.38387396550135E-02
 cg2d: Sum(rhs),rhsMax =  -2.44249065417534E-15  4.54379565429398E-02
 cg2d: Sum(rhs),rhsMax =  -2.16493489801906E-15  4.77259346921628E-02
 cg2d: Sum(rhs),rhsMax =  -2.20656826144250E-15  4.99949948582788E-02
 cg2d: Sum(rhs),rhsMax =  -1.48492329543615E-15  5.22073352299188E-02
 cg2d: Sum(rhs),rhsMax =  -1.23512311489549E-15  5.43317161317358E-02
 cg2d: Sum(rhs),rhsMax =  -1.40165656858926E-15  5.63476440877035E-02
 cg2d: Sum(rhs),rhsMax =  -9.71445146547012E-16  5.82478254324630E-02
 cg2d: Sum(rhs),rhsMax =  -1.13797860024079E-15  6.00385234505016E-02
 cg2d: Sum(rhs),rhsMax =  -5.82867087928207E-16  6.17377936438344E-02
 cg2d: Sum(rhs),rhsMax =  -6.38378239159465E-16  6.33719190407237E-02
 cg2d: Sum(rhs),rhsMax =  -2.49800180540660E-16  6.49706569416993E-02
 cg2d: Sum(rhs),rhsMax =   2.49800180540660E-16  6.65620863065913E-02
 cg2d: Sum(rhs),rhsMax =   2.22044604925031E-16  6.81678820477581E-02
 cg2d: Sum(rhs),rhsMax =   1.66533453693773E-16  6.97997404798492E-02
 cg2d: Sum(rhs),rhsMax =   6.10622663543836E-16  7.14574676361094E-02
 cg2d: Sum(rhs),rhsMax =   3.88578058618805E-16  7.31289637134348E-02
 cg2d: Sum(rhs),rhsMax =   5.27355936696949E-16  7.47920409040934E-02
 cg2d: Sum(rhs),rhsMax =   4.71844785465692E-16  7.64177413575946E-02
 cg2d: Sum(rhs),rhsMax =   9.15933995315754E-16  7.79746108056405E-02
 cg2d: Sum(rhs),rhsMax =   8.88178419700125E-16  7.94332557886441E-02
 cg2d: Sum(rhs),rhsMax =   9.43689570931383E-16  8.07704836345385E-02
 cg2d: Sum(rhs),rhsMax =   7.49400541621981E-16  8.19723992240753E-02
 cg2d: Sum(rhs),rhsMax =   5.27355936696949E-16  8.30360028855269E-02
 cg2d: Sum(rhs),rhsMax =   8.60422844084496E-16  8.39690758689075E-02
 cg2d: Sum(rhs),rhsMax =   1.02695629777827E-15  8.47884157035333E-02
 cg2d: Sum(rhs),rhsMax =   1.12410081243297E-15  8.55167465478748E-02
 cg2d: Sum(rhs),rhsMax =   1.42941214420489E-15  8.61788334361681E-02
 cg2d: Sum(rhs),rhsMax =   9.29811783123569E-16  8.67974394897708E-02
 cg2d: Sum(rhs),rhsMax =   8.18789480661053E-16  8.73897661330490E-02
 cg2d: Sum(rhs),rhsMax =   2.63677968348475E-16  8.79649139548752E-02
 cg2d: Sum(rhs),rhsMax =   4.02455846426619E-16  8.85227198830886E-02
 cg2d: Sum(rhs),rhsMax =   8.04911692853238E-16  8.90540993874530E-02
 cg2d: Sum(rhs),rhsMax =   1.16573417585641E-15  8.95427879801310E-02
 cg2d: Sum(rhs),rhsMax =   1.06858966120171E-15  8.99681685422157E-02
 cg2d: Sum(rhs),rhsMax =   1.37390099297363E-15  9.03087173619229E-02
 cg2d: Sum(rhs),rhsMax =   1.90125692967058E-15  9.05455212499523E-02
 cg2d: Sum(rhs),rhsMax =   1.94289029309402E-15  9.06653204477839E-02
 cg2d: Sum(rhs),rhsMax =   2.24820162486594E-15  9.06626166188444E-02
 cg2d: Sum(rhs),rhsMax =   2.29677388219329E-15  9.05405398967631E-02
 cg2d: Sum(rhs),rhsMax =   2.01574867908505E-15  9.03103702890221E-02
 cg2d: Sum(rhs),rhsMax =   1.40512601554121E-15  8.99898243686760E-02
 cg2d: Sum(rhs),rhsMax =   1.10154940724527E-15  8.96004121720215E-02
 cg2d: Sum(rhs),rhsMax =   1.05818132034585E-15  8.91643089650445E-02
 cg2d: Sum(rhs),rhsMax =   1.14318277066872E-15  8.87012496083684E-02
 cg2d: Sum(rhs),rhsMax =   1.43982048506075E-15  8.82259317963890E-02
 cg2d: Sum(rhs),rhsMax =   1.29063426612674E-15  8.77463160198106E-02
 cg2d: Sum(rhs),rhsMax =   1.16920362280837E-15  8.72630548694211E-02
 cg2d: Sum(rhs),rhsMax =   1.19002030452009E-15  8.67700999989120E-02
 cg2d: Sum(rhs),rhsMax =   1.66533453693773E-15  8.62563514537469E-02
 cg2d: Sum(rhs),rhsMax =   1.85441939581921E-15  8.57080583050478E-02
 cg2d: Sum(rhs),rhsMax =   2.01748340256103E-15  8.51115730067781E-02
 cg2d: Sum(rhs),rhsMax =   1.95850280437782E-15  8.44560183897019E-02
 cg2d: Sum(rhs),rhsMax =   2.07646400074424E-15  8.37354507062081E-02
 cg2d: Sum(rhs),rhsMax =   2.16146545106710E-15  8.29501902003593E-02
 cg2d: Sum(rhs),rhsMax =   2.54267093491300E-15  8.21071284869115E-02
 cg2d: Sum(rhs),rhsMax =   2.74433253899531E-15  8.12189877520507E-02
 cg2d: Sum(rhs),rhsMax =   2.72611794249755E-15  8.03026736084514E-02
 cg2d: Sum(rhs),rhsMax =   2.43728648374741E-15  7.93770040183254E-02
 cg2d: Sum(rhs),rhsMax =   2.30544749957318E-15  7.84601882927768E-02
 cg2d: Sum(rhs),rhsMax =   3.00107161343988E-15  7.75674589578337E-02
 cg2d: Sum(rhs),rhsMax =   3.75047215506186E-15  7.67092227353876E-02
 cg2d: Sum(rhs),rhsMax =   3.74006381420600E-15  7.58900036912920E-02
 cg2d: Sum(rhs),rhsMax =   3.57699980746418E-15  7.51083192077199E-02
 cg2d: Sum(rhs),rhsMax =   3.39311911901063E-15  7.43574803198175E-02
 cg2d: Sum(rhs),rhsMax =   3.33760796777938E-15  7.36271655919214E-02
 cg2d: Sum(rhs),rhsMax =   3.72618602639818E-15  7.29055031011759E-02
 cg2d: Sum(rhs),rhsMax =   3.69149155687865E-15  7.21813242295426E-02
 --> objf_test(bi,bj)   = -0.849803609336642E+00
 --> objf_tracer(bi,bj) =  0.000000000000000E+00
 --> objf_atl(bi,bj)    =  0.000000000000000E+00
  local fc = -0.849803609336642E+00
 global fc = -0.849803609336642E+00
 ph-check fcpertplus =  -0.849803609
(PID.TID 0000.0001)  MDSREADFIELD: opening file: xx_depth.0000000000.001.001.data
 ph-check fcpertminus =  -0.849803598
(PID.TID 0000.0001)  MDSREADFIELD: opening file: xx_depth.0000000000.001.001.data
(PID.TID 0000.0001)  MDSREADFIELD: opening global file: walls.bigRidge
(PID.TID 0000.0001) // =======================================================
(PID.TID 0000.0001) // Field Bottom depths (ini_depths) at iteration          1
(PID.TID 0000.0001) // CMIN =         -5.000000000000000E+03
(PID.TID 0000.0001) // CMAX =         -2.000000000000000E+03
(PID.TID 0000.0001) // CINT =          1.111111111111111E+02
(PID.TID 0000.0001) // SYMBOLS (CMIN->CMAX): -abcdefghijklmnopqrstuvwxyz+
(PID.TID 0000.0001) //                  0.0: .
(PID.TID 0000.0001) // RANGE I (Lo:Hi:Step):(  -1:   7:   1)
(PID.TID 0000.0001) // RANGE J (Lo:Hi:Step):(   7:  -1:  -1)
(PID.TID 0000.0001) // RANGE K (Lo:Hi:Step):(   1:   1:   1)
(PID.TID 0000.0001) // =======================================================
(PID.TID 0000.0001) K =   1
(PID.TID 0000.0001) //
(PID.TID 0000.0001) // |--J--|*01234567
(PID.TID 0000.0001) //      7 ----+----
(PID.TID 0000.0001) //      6 .........
(PID.TID 0000.0001) //      5 ----+----
(PID.TID 0000.0001) //      4 ----+----
(PID.TID 0000.0001) //      3 ----+----
(PID.TID 0000.0001) //      2 ----+----
(PID.TID 0000.0001) //      1 .........
(PID.TID 0000.0001) //      0 ----+----
(PID.TID 0000.0001) //     -1 ----+----
(PID.TID 0000.0001) // =======================================================
(PID.TID 0000.0001) // END OF FIELD                                          =
(PID.TID 0000.0001) // =======================================================
(PID.TID 0000.0001) 
(PID.TID 0000.0001) // =======================================================
(PID.TID 0000.0001) // Field Model R_low (ini_masks_etc) at iteration          1
(PID.TID 0000.0001) // CMIN =         -5.000000000000000E+03
(PID.TID 0000.0001) // CMAX =         -2.000000000000000E+03
(PID.TID 0000.0001) // CINT =          1.111111111111111E+02
(PID.TID 0000.0001) // SYMBOLS (CMIN->CMAX): -abcdefghijklmnopqrstuvwxyz+
(PID.TID 0000.0001) //                  0.0: .
(PID.TID 0000.0001) // RANGE I (Lo:Hi:Step):(  -1:   7:   1)
(PID.TID 0000.0001) // RANGE J (Lo:Hi:Step):(   7:  -1:  -1)
(PID.TID 0000.0001) // RANGE K (Lo:Hi:Step):(   1:   1:   1)
(PID.TID 0000.0001) // =======================================================
(PID.TID 0000.0001) K =   1
(PID.TID 0000.0001) //
(PID.TID 0000.0001) // |--J--|*01234567
(PID.TID 0000.0001) //      7 ----+----
(PID.TID 0000.0001) //      6 .........
(PID.TID 0000.0001) //      5 ----+----
(PID.TID 0000.0001) //      4 ----+----
(PID.TID 0000.0001) //      3 ----+----
(PID.TID 0000.0001) //      2 ----+----
(PID.TID 0000.0001) //      1 .........
(PID.TID 0000.0001) //      0 ----+----
(PID.TID 0000.0001) //     -1 ----+----
(PID.TID 0000.0001) // =======================================================
(PID.TID 0000.0001) // END OF FIELD                                          =
(PID.TID 0000.0001) // =======================================================
(PID.TID 0000.0001) 
(PID.TID 0000.0001) // =======================================================
(PID.TID 0000.0001) // Field Model Ro_surf (ini_masks_etc) at iteration          1
(PID.TID 0000.0001) // CMIN =          2.273736754432321E-13
(PID.TID 0000.0001) // CMAX =          2.273736754432321E-13
(PID.TID 0000.0001) // CINT =          0.000000000000000E+00
(PID.TID 0000.0001) // SYMBOLS (CMIN->CMAX): -abcdefghijklmnopqrstuvwxyz+
(PID.TID 0000.0001) //                  0.0: .
(PID.TID 0000.0001) // RANGE I (Lo:Hi:Step):(  -1:   7:   1)
(PID.TID 0000.0001) // RANGE J (Lo:Hi:Step):(   7:  -1:  -1)
(PID.TID 0000.0001) // RANGE K (Lo:Hi:Step):(   1:   1:   1)
(PID.TID 0000.0001) // =======================================================
(PID.TID 0000.0001) // =======================================================
(PID.TID 0000.0001) // END OF FIELD                                          =
(PID.TID 0000.0001) // =======================================================
(PID.TID 0000.0001) 
(PID.TID 0000.0001) // =======================================================
(PID.TID 0000.0001) // Field hFacC at iteration          1
(PID.TID 0000.0001) // CMIN =          1.000000000000000E+00
(PID.TID 0000.0001) // CMAX =          1.000000000000000E+00
(PID.TID 0000.0001) // CINT =          0.000000000000000E+00
(PID.TID 0000.0001) // SYMBOLS (CMIN->CMAX): -abcdefghijklmnopqrstuvwxyz+
(PID.TID 0000.0001) //                  0.0: .
(PID.TID 0000.0001) // RANGE I (Lo:Hi:Step):(  -1:   7:   1)
(PID.TID 0000.0001) // RANGE J (Lo:Hi:Step):(   7:  -1:  -1)
(PID.TID 0000.0001) // RANGE K (Lo:Hi:Step):(   1:   1:   1)
(PID.TID 0000.0001) // =======================================================
(PID.TID 0000.0001) // =======================================================
(PID.TID 0000.0001) // END OF FIELD                                          =
(PID.TID 0000.0001) // =======================================================
(PID.TID 0000.0001) 
(PID.TID 0000.0001) // =======================================================
(PID.TID 0000.0001) // Field hFacW at iteration          1
(PID.TID 0000.0001) // CMIN =          1.000000000000000E+00
(PID.TID 0000.0001) // CMAX =          1.000000000000000E+00
(PID.TID 0000.0001) // CINT =          0.000000000000000E+00
(PID.TID 0000.0001) // SYMBOLS (CMIN->CMAX): -abcdefghijklmnopqrstuvwxyz+
(PID.TID 0000.0001) //                  0.0: .
(PID.TID 0000.0001) // RANGE I (Lo:Hi:Step):(  -1:   7:   1)
(PID.TID 0000.0001) // RANGE J (Lo:Hi:Step):(   7:  -1:  -1)
(PID.TID 0000.0001) // RANGE K (Lo:Hi:Step):(   1:   1:   1)
(PID.TID 0000.0001) // =======================================================
(PID.TID 0000.0001) // =======================================================
(PID.TID 0000.0001) // END OF FIELD                                          =
(PID.TID 0000.0001) // =======================================================
(PID.TID 0000.0001) 
(PID.TID 0000.0001) // =======================================================
(PID.TID 0000.0001) // Field hFacS at iteration          1
(PID.TID 0000.0001) // CMIN =          1.000000000000000E+00
(PID.TID 0000.0001) // CMAX =          1.000000000000000E+00
(PID.TID 0000.0001) // CINT =          0.000000000000000E+00
(PID.TID 0000.0001) // SYMBOLS (CMIN->CMAX): -abcdefghijklmnopqrstuvwxyz+
(PID.TID 0000.0001) //                  0.0: .
(PID.TID 0000.0001) // RANGE I (Lo:Hi:Step):(  -1:   7:   1)
(PID.TID 0000.0001) // RANGE J (Lo:Hi:Step):(   7:  -1:  -1)
(PID.TID 0000.0001) // RANGE K (Lo:Hi:Step):(   1:   1:   1)
(PID.TID 0000.0001) // =======================================================
(PID.TID 0000.0001) // =======================================================
(PID.TID 0000.0001) // END OF FIELD                                          =
(PID.TID 0000.0001) // =======================================================
(PID.TID 0000.0001) 
(PID.TID 0000.0001) %MON surfExpanfCori_max           =  -1.0735540000000E-04
(PID.TID 0000.0001) %MON surfExpanfCori_min           =  -1.1783060000000E-04
(PID.TID 0000.0001) %MON surfExpanfCori_mean          =  -1.1259300000000E-04
(PID.TID 0000.0001) %MON surfExpanfCori_sd            =   3.7035424771427E-06
(PID.TID 0000.0001) %MON surfExpanfCoriG_max          =  -1.0866480000000E-04
(PID.TID 0000.0001) %MON surfExpanfCoriG_min          =  -1.1914000000000E-04
(PID.TID 0000.0001) %MON surfExpanfCoriG_mean         =  -1.1390240000000E-04
(PID.TID 0000.0001) %MON surfExpanfCoriG_sd           =   3.7035424771427E-06
(PID.TID 0000.0001) %MON surfExpanfCoriCos_max        =   0.0000000000000E+00
(PID.TID 0000.0001) %MON surfExpanfCoriCos_min        =   0.0000000000000E+00
(PID.TID 0000.0001) %MON surfExpanfCoriCos_mean       =   0.0000000000000E+00
(PID.TID 0000.0001) %MON surfExpanfCoriCos_sd         =   0.0000000000000E+00
(PID.TID 0000.0001) INI_CG2D: CG2D normalisation factor =  1.9999999999999996E-04
(PID.TID 0000.0001) 
                     ctrl_depth_ini: ctrl update R_low,
                                     adding the control vector.
(PID.TID 0000.0001)  MDSREADFIELD: opening file: xx_depth.0000000000.001.001.data
(PID.TID 0000.0001) // =======================================================
(PID.TID 0000.0001) // Field Model Ro_surf (update_masks_etc) at iteration          1
(PID.TID 0000.0001) // CMIN =          2.273736754432321E-13
(PID.TID 0000.0001) // CMAX =          2.273736754432321E-13
(PID.TID 0000.0001) // CINT =          0.000000000000000E+00
(PID.TID 0000.0001) // SYMBOLS (CMIN->CMAX): -abcdefghijklmnopqrstuvwxyz+
(PID.TID 0000.0001) //                  0.0: .
(PID.TID 0000.0001) // RANGE I (Lo:Hi:Step):(  -1:   7:   1)
(PID.TID 0000.0001) // RANGE J (Lo:Hi:Step):(   7:  -1:  -1)
(PID.TID 0000.0001) // RANGE K (Lo:Hi:Step):(   1:   1:   1)
(PID.TID 0000.0001) // =======================================================
(PID.TID 0000.0001) // =======================================================
(PID.TID 0000.0001) // END OF FIELD                                          =
(PID.TID 0000.0001) // =======================================================
(PID.TID 0000.0001) 
(PID.TID 0000.0001) // =======================================================
(PID.TID 0000.0001) // Field hFacC at iteration          1
(PID.TID 0000.0001) // CMIN =          1.000000000000000E+00
(PID.TID 0000.0001) // CMAX =          1.000000000000000E+00
(PID.TID 0000.0001) // CINT =          0.000000000000000E+00
(PID.TID 0000.0001) // SYMBOLS (CMIN->CMAX): -abcdefghijklmnopqrstuvwxyz+
(PID.TID 0000.0001) //                  0.0: .
(PID.TID 0000.0001) // RANGE I (Lo:Hi:Step):(  -1:   7:   1)
(PID.TID 0000.0001) // RANGE J (Lo:Hi:Step):(   7:  -1:  -1)
(PID.TID 0000.0001) // RANGE K (Lo:Hi:Step):(   1:   1:   1)
(PID.TID 0000.0001) // =======================================================
(PID.TID 0000.0001) // =======================================================
(PID.TID 0000.0001) // END OF FIELD                                          =
(PID.TID 0000.0001) // =======================================================
(PID.TID 0000.0001) 
(PID.TID 0000.0001) // =======================================================
(PID.TID 0000.0001) // Field hFacW at iteration          1
(PID.TID 0000.0001) // CMIN =          1.000000000000000E+00
(PID.TID 0000.0001) // CMAX =          1.000000000000000E+00
(PID.TID 0000.0001) // CINT =          0.000000000000000E+00
(PID.TID 0000.0001) // SYMBOLS (CMIN->CMAX): -abcdefghijklmnopqrstuvwxyz+
(PID.TID 0000.0001) //                  0.0: .
(PID.TID 0000.0001) // RANGE I (Lo:Hi:Step):(  -1:   7:   1)
(PID.TID 0000.0001) // RANGE J (Lo:Hi:Step):(   7:  -1:  -1)
(PID.TID 0000.0001) // RANGE K (Lo:Hi:Step):(   1:   1:   1)
(PID.TID 0000.0001) // =======================================================
(PID.TID 0000.0001) // =======================================================
(PID.TID 0000.0001) // END OF FIELD                                          =
(PID.TID 0000.0001) // =======================================================
(PID.TID 0000.0001) 
(PID.TID 0000.0001) // =======================================================
(PID.TID 0000.0001) // Field hFacS at iteration          1
(PID.TID 0000.0001) // CMIN =          1.000000000000000E+00
(PID.TID 0000.0001) // CMAX =          1.000000000000000E+00
(PID.TID 0000.0001) // CINT =          0.000000000000000E+00
(PID.TID 0000.0001) // SYMBOLS (CMIN->CMAX): -abcdefghijklmnopqrstuvwxyz+
(PID.TID 0000.0001) //                  0.0: .
(PID.TID 0000.0001) // RANGE I (Lo:Hi:Step):(  -1:   7:   1)
(PID.TID 0000.0001) // RANGE J (Lo:Hi:Step):(   7:  -1:  -1)
(PID.TID 0000.0001) // RANGE K (Lo:Hi:Step):(   1:   1:   1)
(PID.TID 0000.0001) // =======================================================
(PID.TID 0000.0001) // =======================================================
(PID.TID 0000.0001) // END OF FIELD                                          =
(PID.TID 0000.0001) // =======================================================
(PID.TID 0000.0001) 
(PID.TID 0000.0001) // =======================================================
(PID.TID 0000.0001) // Field Initial Temperature at iteration          1
(PID.TID 0000.0001) // CMIN =          4.000000000000000E+00
(PID.TID 0000.0001) // CMAX =          4.000000000000000E+00
(PID.TID 0000.0001) // CINT =          0.000000000000000E+00
(PID.TID 0000.0001) // SYMBOLS (CMIN->CMAX): -abcdefghijklmnopqrstuvwxyz+
(PID.TID 0000.0001) //                  0.0: .
(PID.TID 0000.0001) // RANGE I (Lo:Hi:Step):(   1:   5:   1)
(PID.TID 0000.0001) // RANGE J (Lo:Hi:Step):(   5:   1:  -1)
(PID.TID 0000.0001) // RANGE K (Lo:Hi:Step):(   1:   1:   1)
(PID.TID 0000.0001) // =======================================================
(PID.TID 0000.0001) // =======================================================
(PID.TID 0000.0001) // END OF FIELD                                          =
(PID.TID 0000.0001) // =======================================================
(PID.TID 0000.0001) 
(PID.TID 0000.0001) // =======================================================
(PID.TID 0000.0001) // Field Initial Salinity at iteration          1
(PID.TID 0000.0001) // CMIN =          3.500000000000000E+01
(PID.TID 0000.0001) // CMAX =          3.500000000000000E+01
(PID.TID 0000.0001) // CINT =          0.000000000000000E+00
(PID.TID 0000.0001) // SYMBOLS (CMIN->CMAX): -abcdefghijklmnopqrstuvwxyz+
(PID.TID 0000.0001) //                  0.0: .
(PID.TID 0000.0001) // RANGE I (Lo:Hi:Step):(   1:   5:   1)
(PID.TID 0000.0001) // RANGE J (Lo:Hi:Step):(   5:   1:  -1)
(PID.TID 0000.0001) // RANGE K (Lo:Hi:Step):(   1:   1:   1)
(PID.TID 0000.0001) // =======================================================
(PID.TID 0000.0001) // =======================================================
(PID.TID 0000.0001) // END OF FIELD                                          =
(PID.TID 0000.0001) // =======================================================
(PID.TID 0000.0001) 
(PID.TID 0000.0001) Start initial hydrostatic pressure computation
(PID.TID 0000.0001) Pressure is predetermined for buoyancyRelation OCEANIC
(PID.TID 0000.0001) 
(PID.TID 0000.0001)  MDSREADFIELD: opening global file: windx.sin_y
(PID.TID 0000.0001) // =======================================================
(PID.TID 0000.0001) // Model current state
(PID.TID 0000.0001) // =======================================================
(PID.TID 0000.0001) 
 cg2d: Sum(rhs),rhsMax =   0.00000000000000E+00  0.00000000000000E+00
 cg2d: Sum(rhs),rhsMax =   4.68375338513738E-16  2.62483626325265E-03
 cg2d: Sum(rhs),rhsMax =   2.43728648374741E-16  5.13362633360708E-03
 cg2d: Sum(rhs),rhsMax =   3.64725610824124E-16  7.16168459233431E-03
 cg2d: Sum(rhs),rhsMax =   4.25874613352306E-16  9.29466756213853E-03
 cg2d: Sum(rhs),rhsMax =   2.11636264069170E-16  1.15304356853768E-02
 cg2d: Sum(rhs),rhsMax =  -1.63064006741820E-16  1.37809802458777E-02
 cg2d: Sum(rhs),rhsMax =  -3.01841884819964E-16  1.60011247633749E-02
 cg2d: Sum(rhs),rhsMax =  -4.23272528138341E-16  1.82027337397724E-02
 cg2d: Sum(rhs),rhsMax =  -5.82867087928207E-16  2.04493560369321E-02
 cg2d: Sum(rhs),rhsMax =  -2.91433543964104E-16  2.25706027240839E-02
 cg2d: Sum(rhs),rhsMax =  -5.27355936696949E-16  2.45301656652180E-02
 cg2d: Sum(rhs),rhsMax =  -3.05311331771918E-16  2.63097943834287E-02
 cg2d: Sum(rhs),rhsMax =  -1.15185638804860E-15  2.79110496626998E-02
 cg2d: Sum(rhs),rhsMax =  -1.10328413072125E-15  2.93538601729944E-02
 cg2d: Sum(rhs),rhsMax =  -1.30451205393456E-15  3.06720438386086E-02
 cg2d: Sum(rhs),rhsMax =  -1.65839564303383E-15  3.19067815821765E-02
 cg2d: Sum(rhs),rhsMax =  -1.99840144432528E-15  3.30992666800376E-02
 cg2d: Sum(rhs),rhsMax =  -2.69229083471600E-15  3.42837431977790E-02
 cg2d: Sum(rhs),rhsMax =  -3.69843045078255E-15  3.54819649925971E-02
 cg2d: Sum(rhs),rhsMax =  -3.49720252756924E-15  3.66998057646291E-02
 cg2d: Sum(rhs),rhsMax =  -3.51801920928096E-15  3.79264044773511E-02
 cg2d: Sum(rhs),rhsMax =  -3.44169137633799E-15  3.91358857772723E-02
 cg2d: Sum(rhs),rhsMax =  -2.81719092498633E-15  4.02913638788379E-02
 cg2d: Sum(rhs),rhsMax =  -3.05311331771918E-15  4.13506294357635E-02
 cg2d: Sum(rhs),rhsMax =  -3.89965837399586E-15  4.22726606542559E-02
 cg2d: Sum(rhs),rhsMax =  -3.91353616180368E-15  4.30239435294333E-02
 cg2d: Sum(rhs),rhsMax =  -3.92741394961149E-15  4.35835862458483E-02
 cg2d: Sum(rhs),rhsMax =  -3.62210261783957E-15  4.39463978901540E-02
 cg2d: Sum(rhs),rhsMax =  -3.84414722276460E-15  4.41234515187847E-02
 cg2d: Sum(rhs),rhsMax =  -4.26048085699904E-15  4.41400962938921E-02
 cg2d: Sum(rhs),rhsMax =  -4.51028103753970E-15  4.40318242147478E-02
 cg2d: Sum(rhs),rhsMax =  -4.63518112781003E-15  4.38387398410784E-02
 cg2d: Sum(rhs),rhsMax =  -4.30211422042248E-15  4.54379563439693E-02
 cg2d: Sum(rhs),rhsMax =  -3.96904731303493E-15  4.77259344741325E-02
 cg2d: Sum(rhs),rhsMax =  -3.69149155687865E-15  4.99949946231596E-02
 cg2d: Sum(rhs),rhsMax =  -3.76088049591772E-15  5.22073349798545E-02
 cg2d: Sum(rhs),rhsMax =  -3.87190279838023E-15  5.43317158687385E-02
 cg2d: Sum(rhs),rhsMax =  -3.42781358853017E-15  5.63476438133933E-02
 cg2d: Sum(rhs),rhsMax =  -3.58046925441613E-15  5.82478251478921E-02
 cg2d: Sum(rhs),rhsMax =  -3.49720252756924E-15  6.00385231560840E-02
 cg2d: Sum(rhs),rhsMax =  -3.63598040564739E-15  6.17377933393904E-02
 cg2d: Sum(rhs),rhsMax =  -3.46944695195361E-15  6.33719187256263E-02
 cg2d: Sum(rhs),rhsMax =  -3.30291349825984E-15  6.49706566150956E-02
 cg2d: Sum(rhs),rhsMax =  -3.35842464949110E-15  6.65620859676622E-02
 cg2d: Sum(rhs),rhsMax =  -3.13638004456607E-15  6.81678816959716E-02
 cg2d: Sum(rhs),rhsMax =  -3.85802501057242E-15  6.97997401151688E-02
 cg2d: Sum(rhs),rhsMax =  -3.41393580072236E-15  7.14574672591244E-02
 cg2d: Sum(rhs),rhsMax =  -3.38618022510673E-15  7.31289633253946E-02
 cg2d: Sum(rhs),rhsMax =  -3.69149155687865E-15  7.47920405068404E-02
 cg2d: Sum(rhs),rhsMax =  -3.41393580072236E-15  7.64177409534100E-02
 cg2d: Sum(rhs),rhsMax =  -3.35842464949110E-15  7.79746103970279E-02
 cg2d: Sum(rhs),rhsMax =  -3.30291349825984E-15  7.94332553780852E-02
 cg2d: Sum(rhs),rhsMax =  -2.80331313717852E-15  8.07704832242594E-02
 cg2d: Sum(rhs),rhsMax =  -2.91433543964104E-15  8.19723988158576E-02
 cg2d: Sum(rhs),rhsMax =  -2.52575738102223E-15  8.30360024805933E-02
 cg2d: Sum(rhs),rhsMax =  -2.13717932240343E-15  8.39690754678934E-02
 cg2d: Sum(rhs),rhsMax =  -2.22044604925031E-15  8.47884153065472E-02
 cg2d: Sum(rhs),rhsMax =  -2.63677968348475E-15  8.55167461546363E-02
 cg2d: Sum(rhs),rhsMax =  -2.83106871279415E-15  8.61788330461950E-02
 cg2d: Sum(rhs),rhsMax =  -2.77555756156289E-15  8.67974391025884E-02
 cg2d: Sum(rhs),rhsMax =  -2.84494650060196E-15  8.73897657483843E-02
 cg2d: Sum(rhs),rhsMax =  -2.67841304690819E-15  8.79649135728088E-02
 cg2d: Sum(rhs),rhsMax =  -2.66453525910038E-15  8.85227195041389E-02
 cg2d: Sum(rhs),rhsMax =  -2.94209101525666E-15  8.90540990125837E-02
 cg2d: Sum(rhs),rhsMax =  -3.12250225675825E-15  8.95427876106817E-02
 cg2d: Sum(rhs),rhsMax =  -3.09474668114262E-15  8.99681681797686E-02
 cg2d: Sum(rhs),rhsMax =  -2.96290769696839E-15  9.03087170081301E-02
 cg2d: Sum(rhs),rhsMax =  -3.33066907387547E-15  9.05455209063499E-02
 cg2d: Sum(rhs),rhsMax =  -3.29597460435593E-15  9.06653201156237E-02
 cg2d: Sum(rhs),rhsMax =  -3.26821902874030E-15  9.06626162989707E-02
 cg2d: Sum(rhs),rhsMax =  -3.42781358853017E-15  9.05405395895503E-02
 cg2d: Sum(rhs),rhsMax =  -3.51108031537706E-15  9.03103699943836E-02
 cg2d: Sum(rhs),rhsMax =  -3.54924423184855E-15  8.99898240861399E-02
 cg2d: Sum(rhs),rhsMax =  -4.20670442924376E-15  8.96004119008614E-02
 cg2d: Sum(rhs),rhsMax =  -4.24671148940847E-15  8.91643087044415E-02
 cg2d: Sum(rhs),rhsMax =  -4.45476988630844E-15  8.87012493575790E-02
 cg2d: Sum(rhs),rhsMax =  -4.38885039422132E-15  8.82259315548944E-02
 cg2d: Sum(rhs),rhsMax =  -4.40966707593304E-15  8.77463157874209E-02
 cg2d: Sum(rhs),rhsMax =  -4.16333634234434E-15  8.72630546463226E-02
 cg2d: Sum(rhs),rhsMax =  -4.69069227904129E-15  8.67700997856493E-02
 cg2d: Sum(rhs),rhsMax =  -5.16253706450698E-15  8.62563512511462E-02
 cg2d: Sum(rhs),rhsMax =  -4.96477858824562E-15  8.57080581140921E-02
 cg2d: Sum(rhs),rhsMax =  -5.00120778124113E-15  8.51115728284576E-02
 cg2d: Sum(rhs),rhsMax =  -5.17814957579077E-15  8.44560182248609E-02
 cg2d: Sum(rhs),rhsMax =  -5.31172328344098E-15  8.37354505554138E-02
 cg2d: Sum(rhs),rhsMax =  -5.32213162429684E-15  8.29501900638111E-02
 cg2d: Sum(rhs),rhsMax =  -5.67991834121706E-15  8.21071283644035E-02
 cg2d: Sum(rhs),rhsMax =  -5.77576181326478E-15  8.12189876429935E-02
 cg2d: Sum(rhs),rhsMax =  -5.99780641818981E-15  8.03026735119456E-02
 cg2d: Sum(rhs),rhsMax =  -6.14785999886180E-15  7.93770039332757E-02
 cg2d: Sum(rhs),rhsMax =  -6.03336824944734E-15  7.84601882180268E-02
 cg2d: Sum(rhs),rhsMax =  -5.92061122350884E-15  7.75674588923018E-02
 cg2d: Sum(rhs),rhsMax =  -5.39152056333592E-15  7.67092226781806E-02
 cg2d: Sum(rhs),rhsMax =  -5.51989010055820E-15  7.58900036417814E-02
 cg2d: Sum(rhs),rhsMax =  -5.66213742558830E-15  7.51083191655703E-02
 cg2d: Sum(rhs),rhsMax =  -5.50254286579843E-15  7.43574802849628E-02
 cg2d: Sum(rhs),rhsMax =  -5.63438184997267E-15  7.36271655644963E-02
 cg2d: Sum(rhs),rhsMax =  -5.72458747072346E-15  7.29055030814134E-02
 cg2d: Sum(rhs),rhsMax =  -5.80091530366644E-15  7.21813242176555E-02
 --> objf_test(bi,bj)   = -0.849803586551173E+00
 --> objf_tracer(bi,bj) =  0.000000000000000E+00
 --> objf_atl(bi,bj)    =  0.000000000000000E+00
  local fc = -0.849803586551173E+00
 global fc = -0.849803586551173E+00
(PID.TID 0000.0001)  MDSREADFIELD: opening file: xx_depth.0000000000.001.001.data
 grad-res -------------------------------
 grad-res     0    4    4    2    1   -.849803598E+00 -.849803609E+00 -.849803587E+00
 grad-res     0    4    4    4   20   -.113918914E-03 -.113927343E-03 -.739960810E-04
(PID.TID 0000.0001)       precision_grdchk_result ADM    -8.49803597943908E-01    -1.13918913561834E-04
 ph-grd  ierr ---------------------------
 ph-grd  ierr =  0, icomp =  4, ichknum =  4
(PID.TID 0000.0001)  MDSREADFIELD: opening file: adxx_depth.0000000000.001.001.data
(PID.TID 0000.0001)  MDSREADFIELD: opening file: xx_depth.0000000000.001.001.data
(PID.TID 0000.0001)  MDSREADFIELD: opening global file: walls.bigRidge
(PID.TID 0000.0001) // =======================================================
(PID.TID 0000.0001) // Field Bottom depths (ini_depths) at iteration          1
(PID.TID 0000.0001) // CMIN =         -5.000000000000000E+03
(PID.TID 0000.0001) // CMAX =         -2.000000000000000E+03
(PID.TID 0000.0001) // CINT =          1.111111111111111E+02
(PID.TID 0000.0001) // SYMBOLS (CMIN->CMAX): -abcdefghijklmnopqrstuvwxyz+
(PID.TID 0000.0001) //                  0.0: .
(PID.TID 0000.0001) // RANGE I (Lo:Hi:Step):(  -1:   7:   1)
(PID.TID 0000.0001) // RANGE J (Lo:Hi:Step):(   7:  -1:  -1)
(PID.TID 0000.0001) // RANGE K (Lo:Hi:Step):(   1:   1:   1)
(PID.TID 0000.0001) // =======================================================
(PID.TID 0000.0001) K =   1
(PID.TID 0000.0001) //
(PID.TID 0000.0001) // |--J--|*01234567
(PID.TID 0000.0001) //      7 ----+----
(PID.TID 0000.0001) //      6 .........
(PID.TID 0000.0001) //      5 ----+----
(PID.TID 0000.0001) //      4 ----+----
(PID.TID 0000.0001) //      3 ----+----
(PID.TID 0000.0001) //      2 ----+----
(PID.TID 0000.0001) //      1 .........
(PID.TID 0000.0001) //      0 ----+----
(PID.TID 0000.0001) //     -1 ----+----
(PID.TID 0000.0001) // =======================================================
(PID.TID 0000.0001) // END OF FIELD                                          =
(PID.TID 0000.0001) // =======================================================
(PID.TID 0000.0001) 
(PID.TID 0000.0001) // =======================================================
(PID.TID 0000.0001) // Field Model R_low (ini_masks_etc) at iteration          1
(PID.TID 0000.0001) // CMIN =         -5.000000000000000E+03
(PID.TID 0000.0001) // CMAX =         -2.000000000000000E+03
(PID.TID 0000.0001) // CINT =          1.111111111111111E+02
(PID.TID 0000.0001) // SYMBOLS (CMIN->CMAX): -abcdefghijklmnopqrstuvwxyz+
(PID.TID 0000.0001) //                  0.0: .
(PID.TID 0000.0001) // RANGE I (Lo:Hi:Step):(  -1:   7:   1)
(PID.TID 0000.0001) // RANGE J (Lo:Hi:Step):(   7:  -1:  -1)
(PID.TID 0000.0001) // RANGE K (Lo:Hi:Step):(   1:   1:   1)
(PID.TID 0000.0001) // =======================================================
(PID.TID 0000.0001) K =   1
(PID.TID 0000.0001) //
(PID.TID 0000.0001) // |--J--|*01234567
(PID.TID 0000.0001) //      7 ----+----
(PID.TID 0000.0001) //      6 .........
(PID.TID 0000.0001) //      5 ----+----
(PID.TID 0000.0001) //      4 ----+----
(PID.TID 0000.0001) //      3 ----+----
(PID.TID 0000.0001) //      2 ----+----
(PID.TID 0000.0001) //      1 .........
(PID.TID 0000.0001) //      0 ----+----
(PID.TID 0000.0001) //     -1 ----+----
(PID.TID 0000.0001) // =======================================================
(PID.TID 0000.0001) // END OF FIELD                                          =
(PID.TID 0000.0001) // =======================================================
(PID.TID 0000.0001) 
(PID.TID 0000.0001) // =======================================================
(PID.TID 0000.0001) // Field Model Ro_surf (ini_masks_etc) at iteration          1
(PID.TID 0000.0001) // CMIN =          2.273736754432321E-13
(PID.TID 0000.0001) // CMAX =          2.273736754432321E-13
(PID.TID 0000.0001) // CINT =          0.000000000000000E+00
(PID.TID 0000.0001) // SYMBOLS (CMIN->CMAX): -abcdefghijklmnopqrstuvwxyz+
(PID.TID 0000.0001) //                  0.0: .
(PID.TID 0000.0001) // RANGE I (Lo:Hi:Step):(  -1:   7:   1)
(PID.TID 0000.0001) // RANGE J (Lo:Hi:Step):(   7:  -1:  -1)
(PID.TID 0000.0001) // RANGE K (Lo:Hi:Step):(   1:   1:   1)
(PID.TID 0000.0001) // =======================================================
(PID.TID 0000.0001) // =======================================================
(PID.TID 0000.0001) // END OF FIELD                                          =
(PID.TID 0000.0001) // =======================================================
(PID.TID 0000.0001) 
(PID.TID 0000.0001) // =======================================================
(PID.TID 0000.0001) // Field hFacC at iteration          1
(PID.TID 0000.0001) // CMIN =          1.000000000000000E+00
(PID.TID 0000.0001) // CMAX =          1.000000000000000E+00
(PID.TID 0000.0001) // CINT =          0.000000000000000E+00
(PID.TID 0000.0001) // SYMBOLS (CMIN->CMAX): -abcdefghijklmnopqrstuvwxyz+
(PID.TID 0000.0001) //                  0.0: .
(PID.TID 0000.0001) // RANGE I (Lo:Hi:Step):(  -1:   7:   1)
(PID.TID 0000.0001) // RANGE J (Lo:Hi:Step):(   7:  -1:  -1)
(PID.TID 0000.0001) // RANGE K (Lo:Hi:Step):(   1:   1:   1)
(PID.TID 0000.0001) // =======================================================
(PID.TID 0000.0001) // =======================================================
(PID.TID 0000.0001) // END OF FIELD                                          =
(PID.TID 0000.0001) // =======================================================
(PID.TID 0000.0001) 
(PID.TID 0000.0001) // =======================================================
(PID.TID 0000.0001) // Field hFacW at iteration          1
(PID.TID 0000.0001) // CMIN =          1.000000000000000E+00
(PID.TID 0000.0001) // CMAX =          1.000000000000000E+00
(PID.TID 0000.0001) // CINT =          0.000000000000000E+00
(PID.TID 0000.0001) // SYMBOLS (CMIN->CMAX): -abcdefghijklmnopqrstuvwxyz+
(PID.TID 0000.0001) //                  0.0: .
(PID.TID 0000.0001) // RANGE I (Lo:Hi:Step):(  -1:   7:   1)
(PID.TID 0000.0001) // RANGE J (Lo:Hi:Step):(   7:  -1:  -1)
(PID.TID 0000.0001) // RANGE K (Lo:Hi:Step):(   1:   1:   1)
(PID.TID 0000.0001) // =======================================================
(PID.TID 0000.0001) // =======================================================
(PID.TID 0000.0001) // END OF FIELD                                          =
(PID.TID 0000.0001) // =======================================================
(PID.TID 0000.0001) 
(PID.TID 0000.0001) // =======================================================
(PID.TID 0000.0001) // Field hFacS at iteration          1
(PID.TID 0000.0001) // CMIN =          1.000000000000000E+00
(PID.TID 0000.0001) // CMAX =          1.000000000000000E+00
(PID.TID 0000.0001) // CINT =          0.000000000000000E+00
(PID.TID 0000.0001) // SYMBOLS (CMIN->CMAX): -abcdefghijklmnopqrstuvwxyz+
(PID.TID 0000.0001) //                  0.0: .
(PID.TID 0000.0001) // RANGE I (Lo:Hi:Step):(  -1:   7:   1)
(PID.TID 0000.0001) // RANGE J (Lo:Hi:Step):(   7:  -1:  -1)
(PID.TID 0000.0001) // RANGE K (Lo:Hi:Step):(   1:   1:   1)
(PID.TID 0000.0001) // =======================================================
(PID.TID 0000.0001) // =======================================================
(PID.TID 0000.0001) // END OF FIELD                                          =
(PID.TID 0000.0001) // =======================================================
(PID.TID 0000.0001) 
(PID.TID 0000.0001) %MON surfExpanfCori_max           =  -1.0735540000000E-04
(PID.TID 0000.0001) %MON surfExpanfCori_min           =  -1.1783060000000E-04
(PID.TID 0000.0001) %MON surfExpanfCori_mean          =  -1.1259300000000E-04
(PID.TID 0000.0001) %MON surfExpanfCori_sd            =   3.7035424771427E-06
(PID.TID 0000.0001) %MON surfExpanfCoriG_max          =  -1.0866480000000E-04
(PID.TID 0000.0001) %MON surfExpanfCoriG_min          =  -1.1914000000000E-04
(PID.TID 0000.0001) %MON surfExpanfCoriG_mean         =  -1.1390240000000E-04
(PID.TID 0000.0001) %MON surfExpanfCoriG_sd           =   3.7035424771427E-06
(PID.TID 0000.0001) %MON surfExpanfCoriCos_max        =   0.0000000000000E+00
(PID.TID 0000.0001) %MON surfExpanfCoriCos_min        =   0.0000000000000E+00
(PID.TID 0000.0001) %MON surfExpanfCoriCos_mean       =   0.0000000000000E+00
(PID.TID 0000.0001) %MON surfExpanfCoriCos_sd         =   0.0000000000000E+00
(PID.TID 0000.0001) INI_CG2D: CG2D normalisation factor =  1.9999999999999996E-04
(PID.TID 0000.0001) 
                     ctrl_depth_ini: ctrl update R_low,
                                     adding the control vector.
(PID.TID 0000.0001)  MDSREADFIELD: opening file: xx_depth.0000000000.001.001.data
(PID.TID 0000.0001) // =======================================================
(PID.TID 0000.0001) // Field Model Ro_surf (update_masks_etc) at iteration          1
(PID.TID 0000.0001) // CMIN =          2.273736754432321E-13
(PID.TID 0000.0001) // CMAX =          2.273736754432321E-13
(PID.TID 0000.0001) // CINT =          0.000000000000000E+00
(PID.TID 0000.0001) // SYMBOLS (CMIN->CMAX): -abcdefghijklmnopqrstuvwxyz+
(PID.TID 0000.0001) //                  0.0: .
(PID.TID 0000.0001) // RANGE I (Lo:Hi:Step):(  -1:   7:   1)
(PID.TID 0000.0001) // RANGE J (Lo:Hi:Step):(   7:  -1:  -1)
(PID.TID 0000.0001) // RANGE K (Lo:Hi:Step):(   1:   1:   1)
(PID.TID 0000.0001) // =======================================================
(PID.TID 0000.0001) // =======================================================
(PID.TID 0000.0001) // END OF FIELD                                          =
(PID.TID 0000.0001) // =======================================================
(PID.TID 0000.0001) 
(PID.TID 0000.0001) // =======================================================
(PID.TID 0000.0001) // Field hFacC at iteration          1
(PID.TID 0000.0001) // CMIN =          1.000000000000000E+00
(PID.TID 0000.0001) // CMAX =          1.000000000000000E+00
(PID.TID 0000.0001) // CINT =          0.000000000000000E+00
(PID.TID 0000.0001) // SYMBOLS (CMIN->CMAX): -abcdefghijklmnopqrstuvwxyz+
(PID.TID 0000.0001) //                  0.0: .
(PID.TID 0000.0001) // RANGE I (Lo:Hi:Step):(  -1:   7:   1)
(PID.TID 0000.0001) // RANGE J (Lo:Hi:Step):(   7:  -1:  -1)
(PID.TID 0000.0001) // RANGE K (Lo:Hi:Step):(   1:   1:   1)
(PID.TID 0000.0001) // =======================================================
(PID.TID 0000.0001) // =======================================================
(PID.TID 0000.0001) // END OF FIELD                                          =
(PID.TID 0000.0001) // =======================================================
(PID.TID 0000.0001) 
(PID.TID 0000.0001) // =======================================================
(PID.TID 0000.0001) // Field hFacW at iteration          1
(PID.TID 0000.0001) // CMIN =          1.000000000000000E+00
(PID.TID 0000.0001) // CMAX =          1.000000000000000E+00
(PID.TID 0000.0001) // CINT =          0.000000000000000E+00
(PID.TID 0000.0001) // SYMBOLS (CMIN->CMAX): -abcdefghijklmnopqrstuvwxyz+
(PID.TID 0000.0001) //                  0.0: .
(PID.TID 0000.0001) // RANGE I (Lo:Hi:Step):(  -1:   7:   1)
(PID.TID 0000.0001) // RANGE J (Lo:Hi:Step):(   7:  -1:  -1)
(PID.TID 0000.0001) // RANGE K (Lo:Hi:Step):(   1:   1:   1)
(PID.TID 0000.0001) // =======================================================
(PID.TID 0000.0001) // =======================================================
(PID.TID 0000.0001) // END OF FIELD                                          =
(PID.TID 0000.0001) // =======================================================
(PID.TID 0000.0001) 
(PID.TID 0000.0001) // =======================================================
(PID.TID 0000.0001) // Field hFacS at iteration          1
(PID.TID 0000.0001) // CMIN =          1.000000000000000E+00
(PID.TID 0000.0001) // CMAX =          1.000000000000000E+00
(PID.TID 0000.0001) // CINT =          0.000000000000000E+00
(PID.TID 0000.0001) // SYMBOLS (CMIN->CMAX): -abcdefghijklmnopqrstuvwxyz+
(PID.TID 0000.0001) //                  0.0: .
(PID.TID 0000.0001) // RANGE I (Lo:Hi:Step):(  -1:   7:   1)
(PID.TID 0000.0001) // RANGE J (Lo:Hi:Step):(   7:  -1:  -1)
(PID.TID 0000.0001) // RANGE K (Lo:Hi:Step):(   1:   1:   1)
(PID.TID 0000.0001) // =======================================================
(PID.TID 0000.0001) // =======================================================
(PID.TID 0000.0001) // END OF FIELD                                          =
(PID.TID 0000.0001) // =======================================================
(PID.TID 0000.0001) 
(PID.TID 0000.0001) // =======================================================
(PID.TID 0000.0001) // Field Initial Temperature at iteration          1
(PID.TID 0000.0001) // CMIN =          4.000000000000000E+00
(PID.TID 0000.0001) // CMAX =          4.000000000000000E+00
(PID.TID 0000.0001) // CINT =          0.000000000000000E+00
(PID.TID 0000.0001) // SYMBOLS (CMIN->CMAX): -abcdefghijklmnopqrstuvwxyz+
(PID.TID 0000.0001) //                  0.0: .
(PID.TID 0000.0001) // RANGE I (Lo:Hi:Step):(   1:   5:   1)
(PID.TID 0000.0001) // RANGE J (Lo:Hi:Step):(   5:   1:  -1)
(PID.TID 0000.0001) // RANGE K (Lo:Hi:Step):(   1:   1:   1)
(PID.TID 0000.0001) // =======================================================
(PID.TID 0000.0001) // =======================================================
(PID.TID 0000.0001) // END OF FIELD                                          =
(PID.TID 0000.0001) // =======================================================
(PID.TID 0000.0001) 
(PID.TID 0000.0001) // =======================================================
(PID.TID 0000.0001) // Field Initial Salinity at iteration          1
(PID.TID 0000.0001) // CMIN =          3.500000000000000E+01
(PID.TID 0000.0001) // CMAX =          3.500000000000000E+01
(PID.TID 0000.0001) // CINT =          0.000000000000000E+00
(PID.TID 0000.0001) // SYMBOLS (CMIN->CMAX): -abcdefghijklmnopqrstuvwxyz+
(PID.TID 0000.0001) //                  0.0: .
(PID.TID 0000.0001) // RANGE I (Lo:Hi:Step):(   1:   5:   1)
(PID.TID 0000.0001) // RANGE J (Lo:Hi:Step):(   5:   1:  -1)
(PID.TID 0000.0001) // RANGE K (Lo:Hi:Step):(   1:   1:   1)
(PID.TID 0000.0001) // =======================================================
(PID.TID 0000.0001) // =======================================================
(PID.TID 0000.0001) // END OF FIELD                                          =
(PID.TID 0000.0001) // =======================================================
(PID.TID 0000.0001) 
(PID.TID 0000.0001) Start initial hydrostatic pressure computation
(PID.TID 0000.0001) Pressure is predetermined for buoyancyRelation OCEANIC
(PID.TID 0000.0001) 
(PID.TID 0000.0001)  MDSREADFIELD: opening global file: windx.sin_y
(PID.TID 0000.0001) // =======================================================
(PID.TID 0000.0001) // Model current state
(PID.TID 0000.0001) // =======================================================
(PID.TID 0000.0001) 
 cg2d: Sum(rhs),rhsMax =   0.00000000000000E+00  0.00000000000000E+00
 cg2d: Sum(rhs),rhsMax =   4.68375338513738E-16  2.62483626325265E-03
 cg2d: Sum(rhs),rhsMax =  -5.20417042793042E-18  5.13362633360820E-03
 cg2d: Sum(rhs),rhsMax =   1.11455983331510E-16  7.16168459034428E-03
 cg2d: Sum(rhs),rhsMax =   3.90312782094782E-17  9.29466755408566E-03
 cg2d: Sum(rhs),rhsMax =  -2.60208521396521E-16  1.15304356703833E-02
 cg2d: Sum(rhs),rhsMax =   5.36463234945828E-16  1.37809802221412E-02
 cg2d: Sum(rhs),rhsMax =   8.88178419700125E-16  1.60011247298458E-02
 cg2d: Sum(rhs),rhsMax =   9.22872889219661E-16  1.82027337628588E-02
 cg2d: Sum(rhs),rhsMax =   1.22124532708767E-15  2.04493560634718E-02
 cg2d: Sum(rhs),rhsMax =   1.58206781009085E-15  2.25706027564301E-02
 cg2d: Sum(rhs),rhsMax =   1.91513471747840E-15  2.45301657055089E-02
 cg2d: Sum(rhs),rhsMax =   1.77635683940025E-15  2.63097944332140E-02
 cg2d: Sum(rhs),rhsMax =   8.46545056276682E-16  2.79110497226686E-02
 cg2d: Sum(rhs),rhsMax =   1.08246744900953E-15  2.93538602428419E-02
 cg2d: Sum(rhs),rhsMax =   1.65145674912992E-15  3.06720439170608E-02
 cg2d: Sum(rhs),rhsMax =   1.40165656858926E-15  3.19067816671607E-02
 cg2d: Sum(rhs),rhsMax =   1.45022882591661E-15  3.30992667689679E-02
 cg2d: Sum(rhs),rhsMax =   9.36750677027476E-16  3.42837432879083E-02
 cg2d: Sum(rhs),rhsMax =   7.63278329429795E-16  3.54819650813803E-02
 cg2d: Sum(rhs),rhsMax =   4.02455846426619E-16  3.66998058500410E-02
 cg2d: Sum(rhs),rhsMax =   4.16333634234434E-17  3.79264045581105E-02
 cg2d: Sum(rhs),rhsMax =   6.73072708679001E-16  3.91358858529388E-02
 cg2d: Sum(rhs),rhsMax =   8.74300631892311E-16  4.02913639497718E-02
 cg2d: Sum(rhs),rhsMax =   3.46944695195361E-16  4.13506295029585E-02
 cg2d: Sum(rhs),rhsMax =   9.43689570931383E-16  4.22726607190764E-02
 cg2d: Sum(rhs),rhsMax =   1.36002320516582E-15  4.30239435933023E-02
 cg2d: Sum(rhs),rhsMax =   1.52655665885959E-15  4.35835863099372E-02
 cg2d: Sum(rhs),rhsMax =   1.85962356624714E-15  4.39463979551255E-02
 cg2d: Sum(rhs),rhsMax =   1.77635683940025E-15  4.41234515846292E-02
 cg2d: Sum(rhs),rhsMax =   1.72084568816899E-15  4.41400963598804E-02
 cg2d: Sum(rhs),rhsMax =   1.69309011255336E-15  4.40318242795064E-02
 cg2d: Sum(rhs),rhsMax =   1.59594559789866E-15  4.38387399027729E-02
 cg2d: Sum(rhs),rhsMax =   1.24900090270330E-15  4.54379563352512E-02
 cg2d: Sum(rhs),rhsMax =   9.57567358739198E-16  4.77259344692844E-02
 cg2d: Sum(rhs),rhsMax =   9.43689570931383E-16  4.99949946209095E-02
 cg2d: Sum(rhs),rhsMax =   7.35522753814166E-16  5.22073349788509E-02
 cg2d: Sum(rhs),rhsMax =   2.08166817117217E-16  5.43317158677527E-02
 cg2d: Sum(rhs),rhsMax =   4.16333634234434E-17  5.63476438114936E-02
 cg2d: Sum(rhs),rhsMax =   2.77555756156289E-17  5.82478251445635E-02
 cg2d: Sum(rhs),rhsMax =  -1.66533453693773E-16  6.00385231512763E-02
 cg2d: Sum(rhs),rhsMax =   2.77555756156289E-17  6.17377933334919E-02
 cg2d: Sum(rhs),rhsMax =  -4.16333634234434E-16  6.33719187193675E-02
 cg2d: Sum(rhs),rhsMax =  -5.55111512312578E-16  6.49706566094029E-02
 cg2d: Sum(rhs),rhsMax =  -1.49880108324396E-15  6.65620859634844E-02
 cg2d: Sum(rhs),rhsMax =  -1.30451205393456E-15  6.81678816941091E-02
 cg2d: Sum(rhs),rhsMax =  -1.30451205393456E-15  6.97997401161313E-02
 cg2d: Sum(rhs),rhsMax =  -1.30451205393456E-15  7.14574672630395E-02
 cg2d: Sum(rhs),rhsMax =  -8.04911692853238E-16  7.31289633319793E-02
 cg2d: Sum(rhs),rhsMax =  -9.43689570931383E-16  7.47920405154396E-02
 cg2d: Sum(rhs),rhsMax =  -1.27675647831893E-15  7.64177409630937E-02
 cg2d: Sum(rhs),rhsMax =  -1.05471187339390E-15  7.79746104067296E-02
 cg2d: Sum(rhs),rhsMax =  -8.32667268468867E-16  7.94332553867609E-02
 cg2d: Sum(rhs),rhsMax =  -4.16333634234434E-16  8.07704832310401E-02
 cg2d: Sum(rhs),rhsMax =  -1.38777878078145E-16  8.19723988201731E-02
 cg2d: Sum(rhs),rhsMax =   5.82867087928207E-16  8.30360024822475E-02
 cg2d: Sum(rhs),rhsMax =   1.19348975147204E-15  8.39690754670836E-02
 cg2d: Sum(rhs),rhsMax =   1.17961196366423E-15  8.47884153038232E-02
 cg2d: Sum(rhs),rhsMax =   1.30451205393456E-15  8.55167461508089E-02
 cg2d: Sum(rhs),rhsMax =   1.49880108324396E-15  8.61788330422102E-02
 cg2d: Sum(rhs),rhsMax =   1.47104550762833E-15  8.67974390993868E-02
 cg2d: Sum(rhs),rhsMax =   1.52655665885959E-15  8.73897657467688E-02
 cg2d: Sum(rhs),rhsMax =   1.36002320516582E-15  8.79649135733401E-02
 cg2d: Sum(rhs),rhsMax =   1.52655665885959E-15  8.85227195070754E-02
 cg2d: Sum(rhs),rhsMax =   1.70696790036118E-15  8.90540990178718E-02
 cg2d: Sum(rhs),rhsMax =   1.80411241501588E-15  8.95427876179975E-02
 cg2d: Sum(rhs),rhsMax =   1.63757896132211E-15  8.99681681886030E-02
 cg2d: Sum(rhs),rhsMax =   1.40859546249317E-15  9.03087170179007E-02
 cg2d: Sum(rhs),rhsMax =   2.24126273096203E-15  9.05455209165219E-02
 cg2d: Sum(rhs),rhsMax =   2.14411821630733E-15  9.06653201258218E-02
 cg2d: Sum(rhs),rhsMax =   1.72778458207290E-15  9.06626163090606E-02
 cg2d: Sum(rhs),rhsMax =   1.65839564303383E-15  9.05405395996814E-02
 cg2d: Sum(rhs),rhsMax =   1.37737043992558E-15  9.03103700049830E-02
 cg2d: Sum(rhs),rhsMax =   9.57567358739198E-16  8.99898240978642E-02
 cg2d: Sum(rhs),rhsMax =   5.95010152260045E-16  8.96004119145093E-02
 cg2d: Sum(rhs),rhsMax =   7.19259721226884E-16  8.91643087208465E-02
 cg2d: Sum(rhs),rhsMax =   4.97865637605344E-16  8.87012493774963E-02
 cg2d: Sum(rhs),rhsMax =   2.87964097012150E-16  8.82259315788999E-02
 cg2d: Sum(rhs),rhsMax =   1.52655665885959E-16  8.77463158158396E-02
 cg2d: Sum(rhs),rhsMax =   3.46944695195361E-18  8.72630546791939E-02
 cg2d: Sum(rhs),rhsMax =  -1.24900090270330E-16  8.67700998227366E-02
 cg2d: Sum(rhs),rhsMax =  -4.92661467177413E-16  8.62563512919845E-02
 cg2d: Sum(rhs),rhsMax =  -2.44596010112730E-16  8.57080581580700E-02
 cg2d: Sum(rhs),rhsMax =  -1.24900090270330E-16  8.51115728749154E-02
 cg2d: Sum(rhs),rhsMax =  -4.44089209850063E-16  8.44560182731922E-02
 cg2d: Sum(rhs),rhsMax =  -8.01442245901285E-16  8.37354506051543E-02
 cg2d: Sum(rhs),rhsMax =  -9.90527104782757E-16  8.29501901147008E-02
 cg2d: Sum(rhs),rhsMax =  -1.08506953422349E-15  8.21071284164135E-02
 cg2d: Sum(rhs),rhsMax =  -7.77156117237610E-16  8.12189876963146E-02
 cg2d: Sum(rhs),rhsMax =  -6.08020578329871E-16  8.03026735669417E-02
 cg2d: Sum(rhs),rhsMax =  -7.94503351997378E-16  7.93770039904104E-02
 cg2d: Sum(rhs),rhsMax =  -1.42073852682501E-15  7.84601882777748E-02
 cg2d: Sum(rhs),rhsMax =  -1.38777878078145E-15  7.75674589550594E-02
 cg2d: Sum(rhs),rhsMax =  -1.39471767468535E-15  7.67092227441900E-02
 cg2d: Sum(rhs),rhsMax =  -1.43288159115684E-15  7.58900037110803E-02
 cg2d: Sum(rhs),rhsMax =  -1.38430933382949E-15  7.51083192379718E-02
 cg2d: Sum(rhs),rhsMax =  -1.60982338570648E-15  7.43574803600712E-02
 cg2d: Sum(rhs),rhsMax =  -1.39471767468535E-15  7.36271656417524E-02
 cg2d: Sum(rhs),rhsMax =  -8.67361737988404E-16  7.29055031601633E-02
 cg2d: Sum(rhs),rhsMax =  -1.08246744900953E-15  7.21813242972310E-02
 --> objf_test(bi,bj)   = -0.849803589259064E+00
 --> objf_tracer(bi,bj) =  0.000000000000000E+00
 --> objf_atl(bi,bj)    =  0.000000000000000E+00
  local fc = -0.849803589259064E+00
 global fc = -0.849803589259064E+00
 ph-check fcpertplus =  -0.849803589
(PID.TID 0000.0001)  MDSREADFIELD: opening file: xx_depth.0000000000.001.001.data
 ph-check fcpertminus =  -0.849803598
(PID.TID 0000.0001)  MDSREADFIELD: opening file: xx_depth.0000000000.001.001.data
(PID.TID 0000.0001)  MDSREADFIELD: opening global file: walls.bigRidge
(PID.TID 0000.0001) // =======================================================
(PID.TID 0000.0001) // Field Bottom depths (ini_depths) at iteration          1
(PID.TID 0000.0001) // CMIN =         -5.000000000000000E+03
(PID.TID 0000.0001) // CMAX =         -2.000000000000000E+03
(PID.TID 0000.0001) // CINT =          1.111111111111111E+02
(PID.TID 0000.0001) // SYMBOLS (CMIN->CMAX): -abcdefghijklmnopqrstuvwxyz+
(PID.TID 0000.0001) //                  0.0: .
(PID.TID 0000.0001) // RANGE I (Lo:Hi:Step):(  -1:   7:   1)
(PID.TID 0000.0001) // RANGE J (Lo:Hi:Step):(   7:  -1:  -1)
(PID.TID 0000.0001) // RANGE K (Lo:Hi:Step):(   1:   1:   1)
(PID.TID 0000.0001) // =======================================================
(PID.TID 0000.0001) K =   1
(PID.TID 0000.0001) //
(PID.TID 0000.0001) // |--J--|*01234567
(PID.TID 0000.0001) //      7 ----+----
(PID.TID 0000.0001) //      6 .........
(PID.TID 0000.0001) //      5 ----+----
(PID.TID 0000.0001) //      4 ----+----
(PID.TID 0000.0001) //      3 ----+----
(PID.TID 0000.0001) //      2 ----+----
(PID.TID 0000.0001) //      1 .........
(PID.TID 0000.0001) //      0 ----+----
(PID.TID 0000.0001) //     -1 ----+----
(PID.TID 0000.0001) // =======================================================
(PID.TID 0000.0001) // END OF FIELD                                          =
(PID.TID 0000.0001) // =======================================================
(PID.TID 0000.0001) 
(PID.TID 0000.0001) // =======================================================
(PID.TID 0000.0001) // Field Model R_low (ini_masks_etc) at iteration          1
(PID.TID 0000.0001) // CMIN =         -5.000000000000000E+03
(PID.TID 0000.0001) // CMAX =         -2.000000000000000E+03
(PID.TID 0000.0001) // CINT =          1.111111111111111E+02
(PID.TID 0000.0001) // SYMBOLS (CMIN->CMAX): -abcdefghijklmnopqrstuvwxyz+
(PID.TID 0000.0001) //                  0.0: .
(PID.TID 0000.0001) // RANGE I (Lo:Hi:Step):(  -1:   7:   1)
(PID.TID 0000.0001) // RANGE J (Lo:Hi:Step):(   7:  -1:  -1)
(PID.TID 0000.0001) // RANGE K (Lo:Hi:Step):(   1:   1:   1)
(PID.TID 0000.0001) // =======================================================
(PID.TID 0000.0001) K =   1
(PID.TID 0000.0001) //
(PID.TID 0000.0001) // |--J--|*01234567
(PID.TID 0000.0001) //      7 ----+----
(PID.TID 0000.0001) //      6 .........
(PID.TID 0000.0001) //      5 ----+----
(PID.TID 0000.0001) //      4 ----+----
(PID.TID 0000.0001) //      3 ----+----
(PID.TID 0000.0001) //      2 ----+----
(PID.TID 0000.0001) //      1 .........
(PID.TID 0000.0001) //      0 ----+----
(PID.TID 0000.0001) //     -1 ----+----
(PID.TID 0000.0001) // =======================================================
(PID.TID 0000.0001) // END OF FIELD                                          =
(PID.TID 0000.0001) // =======================================================
(PID.TID 0000.0001) 
(PID.TID 0000.0001) // =======================================================
(PID.TID 0000.0001) // Field Model Ro_surf (ini_masks_etc) at iteration          1
(PID.TID 0000.0001) // CMIN =          2.273736754432321E-13
(PID.TID 0000.0001) // CMAX =          2.273736754432321E-13
(PID.TID 0000.0001) // CINT =          0.000000000000000E+00
(PID.TID 0000.0001) // SYMBOLS (CMIN->CMAX): -abcdefghijklmnopqrstuvwxyz+
(PID.TID 0000.0001) //                  0.0: .
(PID.TID 0000.0001) // RANGE I (Lo:Hi:Step):(  -1:   7:   1)
(PID.TID 0000.0001) // RANGE J (Lo:Hi:Step):(   7:  -1:  -1)
(PID.TID 0000.0001) // RANGE K (Lo:Hi:Step):(   1:   1:   1)
(PID.TID 0000.0001) // =======================================================
(PID.TID 0000.0001) // =======================================================
(PID.TID 0000.0001) // END OF FIELD                                          =
(PID.TID 0000.0001) // =======================================================
(PID.TID 0000.0001) 
(PID.TID 0000.0001) // =======================================================
(PID.TID 0000.0001) // Field hFacC at iteration          1
(PID.TID 0000.0001) // CMIN =          1.000000000000000E+00
(PID.TID 0000.0001) // CMAX =          1.000000000000000E+00
(PID.TID 0000.0001) // CINT =          0.000000000000000E+00
(PID.TID 0000.0001) // SYMBOLS (CMIN->CMAX): -abcdefghijklmnopqrstuvwxyz+
(PID.TID 0000.0001) //                  0.0: .
(PID.TID 0000.0001) // RANGE I (Lo:Hi:Step):(  -1:   7:   1)
(PID.TID 0000.0001) // RANGE J (Lo:Hi:Step):(   7:  -1:  -1)
(PID.TID 0000.0001) // RANGE K (Lo:Hi:Step):(   1:   1:   1)
(PID.TID 0000.0001) // =======================================================
(PID.TID 0000.0001) // =======================================================
(PID.TID 0000.0001) // END OF FIELD                                          =
(PID.TID 0000.0001) // =======================================================
(PID.TID 0000.0001) 
(PID.TID 0000.0001) // =======================================================
(PID.TID 0000.0001) // Field hFacW at iteration          1
(PID.TID 0000.0001) // CMIN =          1.000000000000000E+00
(PID.TID 0000.0001) // CMAX =          1.000000000000000E+00
(PID.TID 0000.0001) // CINT =          0.000000000000000E+00
(PID.TID 0000.0001) // SYMBOLS (CMIN->CMAX): -abcdefghijklmnopqrstuvwxyz+
(PID.TID 0000.0001) //                  0.0: .
(PID.TID 0000.0001) // RANGE I (Lo:Hi:Step):(  -1:   7:   1)
(PID.TID 0000.0001) // RANGE J (Lo:Hi:Step):(   7:  -1:  -1)
(PID.TID 0000.0001) // RANGE K (Lo:Hi:Step):(   1:   1:   1)
(PID.TID 0000.0001) // =======================================================
(PID.TID 0000.0001) // =======================================================
(PID.TID 0000.0001) // END OF FIELD                                          =
(PID.TID 0000.0001) // =======================================================
(PID.TID 0000.0001) 
(PID.TID 0000.0001) // =======================================================
(PID.TID 0000.0001) // Field hFacS at iteration          1
(PID.TID 0000.0001) // CMIN =          1.000000000000000E+00
(PID.TID 0000.0001) // CMAX =          1.000000000000000E+00
(PID.TID 0000.0001) // CINT =          0.000000000000000E+00
(PID.TID 0000.0001) // SYMBOLS (CMIN->CMAX): -abcdefghijklmnopqrstuvwxyz+
(PID.TID 0000.0001) //                  0.0: .
(PID.TID 0000.0001) // RANGE I (Lo:Hi:Step):(  -1:   7:   1)
(PID.TID 0000.0001) // RANGE J (Lo:Hi:Step):(   7:  -1:  -1)
(PID.TID 0000.0001) // RANGE K (Lo:Hi:Step):(   1:   1:   1)
(PID.TID 0000.0001) // =======================================================
(PID.TID 0000.0001) // =======================================================
(PID.TID 0000.0001) // END OF FIELD                                          =
(PID.TID 0000.0001) // =======================================================
(PID.TID 0000.0001) 
(PID.TID 0000.0001) %MON surfExpanfCori_max           =  -1.0735540000000E-04
(PID.TID 0000.0001) %MON surfExpanfCori_min           =  -1.1783060000000E-04
(PID.TID 0000.0001) %MON surfExpanfCori_mean          =  -1.1259300000000E-04
(PID.TID 0000.0001) %MON surfExpanfCori_sd            =   3.7035424771427E-06
(PID.TID 0000.0001) %MON surfExpanfCoriG_max          =  -1.0866480000000E-04
(PID.TID 0000.0001) %MON surfExpanfCoriG_min          =  -1.1914000000000E-04
(PID.TID 0000.0001) %MON surfExpanfCoriG_mean         =  -1.1390240000000E-04
(PID.TID 0000.0001) %MON surfExpanfCoriG_sd           =   3.7035424771427E-06
(PID.TID 0000.0001) %MON surfExpanfCoriCos_max        =   0.0000000000000E+00
(PID.TID 0000.0001) %MON surfExpanfCoriCos_min        =   0.0000000000000E+00
(PID.TID 0000.0001) %MON surfExpanfCoriCos_mean       =   0.0000000000000E+00
(PID.TID 0000.0001) %MON surfExpanfCoriCos_sd         =   0.0000000000000E+00
(PID.TID 0000.0001) INI_CG2D: CG2D normalisation factor =  1.9999999999999996E-04
(PID.TID 0000.0001) 
                     ctrl_depth_ini: ctrl update R_low,
                                     adding the control vector.
(PID.TID 0000.0001)  MDSREADFIELD: opening file: xx_depth.0000000000.001.001.data
(PID.TID 0000.0001) // =======================================================
(PID.TID 0000.0001) // Field Model Ro_surf (update_masks_etc) at iteration          1
(PID.TID 0000.0001) // CMIN =          2.273736754432321E-13
(PID.TID 0000.0001) // CMAX =          2.273736754432321E-13
(PID.TID 0000.0001) // CINT =          0.000000000000000E+00
(PID.TID 0000.0001) // SYMBOLS (CMIN->CMAX): -abcdefghijklmnopqrstuvwxyz+
(PID.TID 0000.0001) //                  0.0: .
(PID.TID 0000.0001) // RANGE I (Lo:Hi:Step):(  -1:   7:   1)
(PID.TID 0000.0001) // RANGE J (Lo:Hi:Step):(   7:  -1:  -1)
(PID.TID 0000.0001) // RANGE K (Lo:Hi:Step):(   1:   1:   1)
(PID.TID 0000.0001) // =======================================================
(PID.TID 0000.0001) // =======================================================
(PID.TID 0000.0001) // END OF FIELD                                          =
(PID.TID 0000.0001) // =======================================================
(PID.TID 0000.0001) 
(PID.TID 0000.0001) // =======================================================
(PID.TID 0000.0001) // Field hFacC at iteration          1
(PID.TID 0000.0001) // CMIN =          1.000000000000000E+00
(PID.TID 0000.0001) // CMAX =          1.000000000000000E+00
(PID.TID 0000.0001) // CINT =          0.000000000000000E+00
(PID.TID 0000.0001) // SYMBOLS (CMIN->CMAX): -abcdefghijklmnopqrstuvwxyz+
(PID.TID 0000.0001) //                  0.0: .
(PID.TID 0000.0001) // RANGE I (Lo:Hi:Step):(  -1:   7:   1)
(PID.TID 0000.0001) // RANGE J (Lo:Hi:Step):(   7:  -1:  -1)
(PID.TID 0000.0001) // RANGE K (Lo:Hi:Step):(   1:   1:   1)
(PID.TID 0000.0001) // =======================================================
(PID.TID 0000.0001) // =======================================================
(PID.TID 0000.0001) // END OF FIELD                                          =
(PID.TID 0000.0001) // =======================================================
(PID.TID 0000.0001) 
(PID.TID 0000.0001) // =======================================================
(PID.TID 0000.0001) // Field hFacW at iteration          1
(PID.TID 0000.0001) // CMIN =          1.000000000000000E+00
(PID.TID 0000.0001) // CMAX =          1.000000000000000E+00
(PID.TID 0000.0001) // CINT =          0.000000000000000E+00
(PID.TID 0000.0001) // SYMBOLS (CMIN->CMAX): -abcdefghijklmnopqrstuvwxyz+
(PID.TID 0000.0001) //                  0.0: .
(PID.TID 0000.0001) // RANGE I (Lo:Hi:Step):(  -1:   7:   1)
(PID.TID 0000.0001) // RANGE J (Lo:Hi:Step):(   7:  -1:  -1)
(PID.TID 0000.0001) // RANGE K (Lo:Hi:Step):(   1:   1:   1)
(PID.TID 0000.0001) // =======================================================
(PID.TID 0000.0001) // =======================================================
(PID.TID 0000.0001) // END OF FIELD                                          =
(PID.TID 0000.0001) // =======================================================
(PID.TID 0000.0001) 
(PID.TID 0000.0001) // =======================================================
(PID.TID 0000.0001) // Field hFacS at iteration          1
(PID.TID 0000.0001) // CMIN =          1.000000000000000E+00
(PID.TID 0000.0001) // CMAX =          1.000000000000000E+00
(PID.TID 0000.0001) // CINT =          0.000000000000000E+00
(PID.TID 0000.0001) // SYMBOLS (CMIN->CMAX): -abcdefghijklmnopqrstuvwxyz+
(PID.TID 0000.0001) //                  0.0: .
(PID.TID 0000.0001) // RANGE I (Lo:Hi:Step):(  -1:   7:   1)
(PID.TID 0000.0001) // RANGE J (Lo:Hi:Step):(   7:  -1:  -1)
(PID.TID 0000.0001) // RANGE K (Lo:Hi:Step):(   1:   1:   1)
(PID.TID 0000.0001) // =======================================================
(PID.TID 0000.0001) // =======================================================
(PID.TID 0000.0001) // END OF FIELD                                          =
(PID.TID 0000.0001) // =======================================================
(PID.TID 0000.0001) 
(PID.TID 0000.0001) // =======================================================
(PID.TID 0000.0001) // Field Initial Temperature at iteration          1
(PID.TID 0000.0001) // CMIN =          4.000000000000000E+00
(PID.TID 0000.0001) // CMAX =          4.000000000000000E+00
(PID.TID 0000.0001) // CINT =          0.000000000000000E+00
(PID.TID 0000.0001) // SYMBOLS (CMIN->CMAX): -abcdefghijklmnopqrstuvwxyz+
(PID.TID 0000.0001) //                  0.0: .
(PID.TID 0000.0001) // RANGE I (Lo:Hi:Step):(   1:   5:   1)
(PID.TID 0000.0001) // RANGE J (Lo:Hi:Step):(   5:   1:  -1)
(PID.TID 0000.0001) // RANGE K (Lo:Hi:Step):(   1:   1:   1)
(PID.TID 0000.0001) // =======================================================
(PID.TID 0000.0001) // =======================================================
(PID.TID 0000.0001) // END OF FIELD                                          =
(PID.TID 0000.0001) // =======================================================
(PID.TID 0000.0001) 
(PID.TID 0000.0001) // =======================================================
(PID.TID 0000.0001) // Field Initial Salinity at iteration          1
(PID.TID 0000.0001) // CMIN =          3.500000000000000E+01
(PID.TID 0000.0001) // CMAX =          3.500000000000000E+01
(PID.TID 0000.0001) // CINT =          0.000000000000000E+00
(PID.TID 0000.0001) // SYMBOLS (CMIN->CMAX): -abcdefghijklmnopqrstuvwxyz+
(PID.TID 0000.0001) //                  0.0: .
(PID.TID 0000.0001) // RANGE I (Lo:Hi:Step):(   1:   5:   1)
(PID.TID 0000.0001) // RANGE J (Lo:Hi:Step):(   5:   1:  -1)
(PID.TID 0000.0001) // RANGE K (Lo:Hi:Step):(   1:   1:   1)
(PID.TID 0000.0001) // =======================================================
(PID.TID 0000.0001) // =======================================================
(PID.TID 0000.0001) // END OF FIELD                                          =
(PID.TID 0000.0001) // =======================================================
(PID.TID 0000.0001) 
(PID.TID 0000.0001) Start initial hydrostatic pressure computation
(PID.TID 0000.0001) Pressure is predetermined for buoyancyRelation OCEANIC
(PID.TID 0000.0001) 
(PID.TID 0000.0001)  MDSREADFIELD: opening global file: windx.sin_y
(PID.TID 0000.0001) // =======================================================
(PID.TID 0000.0001) // Model current state
(PID.TID 0000.0001) // =======================================================
(PID.TID 0000.0001) 
 cg2d: Sum(rhs),rhsMax =   0.00000000000000E+00  0.00000000000000E+00
 cg2d: Sum(rhs),rhsMax =   4.68375338513738E-16  2.62483626325265E-03
 cg2d: Sum(rhs),rhsMax =   2.42861286636753E-17  5.13362633360820E-03
 cg2d: Sum(rhs),rhsMax =   1.50053580671994E-16  7.16168459527187E-03
 cg2d: Sum(rhs),rhsMax =   2.02962646689286E-16  9.29466756563461E-03
 cg2d: Sum(rhs),rhsMax =  -5.55111512312578E-16  1.15304356891189E-02
 cg2d: Sum(rhs),rhsMax =  -6.50954984360297E-16  1.37809802486328E-02
 cg2d: Sum(rhs),rhsMax =  -4.37150315946155E-16  1.60011247640119E-02
 cg2d: Sum(rhs),rhsMax =  -1.38777878078145E-17  1.82027338195864E-02
 cg2d: Sum(rhs),rhsMax =  -1.11022302462516E-16  2.04493561108383E-02
 cg2d: Sum(rhs),rhsMax =  -5.27355936696949E-16  2.25706027913896E-02
 cg2d: Sum(rhs),rhsMax =  -4.30211422042248E-16  2.45301657268952E-02
 cg2d: Sum(rhs),rhsMax =  -3.33066907387547E-16  2.63097944417713E-02
 cg2d: Sum(rhs),rhsMax =  -2.63677968348475E-16  2.79110497207598E-02
 cg2d: Sum(rhs),rhsMax =  -2.15105711021124E-16  2.93538602338908E-02
 cg2d: Sum(rhs),rhsMax =  -4.16333634234434E-17  3.06720439048238E-02
 cg2d: Sum(rhs),rhsMax =   4.16333634234434E-16  3.19067816549464E-02
 cg2d: Sum(rhs),rhsMax =   6.80011602582908E-16  3.30992667589319E-02
 cg2d: Sum(rhs),rhsMax =   6.59194920871187E-16  3.42837432805320E-02
 cg2d: Sum(rhs),rhsMax =   7.14706072102445E-16  3.54819650752150E-02
 cg2d: Sum(rhs),rhsMax =   4.16333634234434E-17  3.66998058417534E-02
 cg2d: Sum(rhs),rhsMax =  -2.01227923213310E-16  3.79264045428175E-02
 cg2d: Sum(rhs),rhsMax =  -7.28583859910259E-16  3.91358858247734E-02
 cg2d: Sum(rhs),rhsMax =  -6.24500451351651E-16  4.02913639025884E-02
 cg2d: Sum(rhs),rhsMax =  -1.49880108324396E-15  4.13506294310635E-02
 cg2d: Sum(rhs),rhsMax =  -1.01307850997046E-15  4.22726606178719E-02
 cg2d: Sum(rhs),rhsMax =  -1.63757896132211E-15  4.30239434597464E-02
 cg2d: Sum(rhs),rhsMax =  -1.74860126378462E-15  4.35835861427554E-02
 cg2d: Sum(rhs),rhsMax =  -8.74300631892311E-16  4.39463977547488E-02
 cg2d: Sum(rhs),rhsMax =  -1.12410081243297E-15  4.41234513528752E-02
 cg2d: Sum(rhs),rhsMax =  -1.31838984174237E-15  4.41400960994364E-02
 cg2d: Sum(rhs),rhsMax =  -1.67921232474555E-15  4.40318239932977E-02
 cg2d: Sum(rhs),rhsMax =  -1.55431223447522E-15  4.38387395933191E-02
 cg2d: Sum(rhs),rhsMax =  -1.77635683940025E-15  4.54379565516578E-02
 cg2d: Sum(rhs),rhsMax =  -1.40165656858926E-15  4.77259346970110E-02
 cg2d: Sum(rhs),rhsMax =  -1.85962356624714E-15  4.99949948605288E-02
 cg2d: Sum(rhs),rhsMax =  -1.99840144432528E-15  5.22073352309224E-02
 cg2d: Sum(rhs),rhsMax =  -2.56739074444567E-15  5.43317161327216E-02
 cg2d: Sum(rhs),rhsMax =  -2.66453525910038E-15  5.63476440896031E-02
 cg2d: Sum(rhs),rhsMax =  -2.77555756156289E-15  5.82478254357918E-02
 cg2d: Sum(rhs),rhsMax =  -2.58126853225349E-15  6.00385234553093E-02
 cg2d: Sum(rhs),rhsMax =  -2.24820162486594E-15  6.17377936497329E-02
 cg2d: Sum(rhs),rhsMax =  -1.80411241501588E-15  6.33719190469824E-02
 cg2d: Sum(rhs),rhsMax =  -2.05391259555654E-15  6.49706569473919E-02
 cg2d: Sum(rhs),rhsMax =  -1.97064586870965E-15  6.65620863107691E-02
 cg2d: Sum(rhs),rhsMax =  -2.74780198594726E-15  6.81678820496206E-02
 cg2d: Sum(rhs),rhsMax =  -2.08166817117217E-15  6.97997404788867E-02
 cg2d: Sum(rhs),rhsMax =  -1.91513471747840E-15  7.14574676321943E-02
 cg2d: Sum(rhs),rhsMax =  -2.02615701994091E-15  7.31289637068502E-02
 cg2d: Sum(rhs),rhsMax =  -2.16493489801906E-15  7.47920408954943E-02
 cg2d: Sum(rhs),rhsMax =  -2.80331313717852E-15  7.64177413479110E-02
 cg2d: Sum(rhs),rhsMax =  -2.91433543964104E-15  7.79746107959388E-02
 cg2d: Sum(rhs),rhsMax =  -2.33146835171283E-15  7.94332557799683E-02
 cg2d: Sum(rhs),rhsMax =  -2.27595720048157E-15  8.07704836277578E-02
 cg2d: Sum(rhs),rhsMax =  -2.19269047363468E-15  8.19723992197598E-02
 cg2d: Sum(rhs),rhsMax =  -1.97064586870965E-15  8.30360028838726E-02
 cg2d: Sum(rhs),rhsMax =  -1.76247905159244E-15  8.39690758697172E-02
 cg2d: Sum(rhs),rhsMax =  -1.85962356624714E-15  8.47884157062572E-02
 cg2d: Sum(rhs),rhsMax =  -2.15105711021124E-15  8.55167465517021E-02
 cg2d: Sum(rhs),rhsMax =  -1.85962356624714E-15  8.61788334401528E-02
 cg2d: Sum(rhs),rhsMax =  -1.92901250528621E-15  8.67974394929724E-02
 cg2d: Sum(rhs),rhsMax =  -1.90125692967058E-15  8.73897661346645E-02
 cg2d: Sum(rhs),rhsMax =  -1.56819002228303E-15  8.79649139543439E-02
 cg2d: Sum(rhs),rhsMax =  -1.67921232474555E-15  8.85227198801521E-02
 cg2d: Sum(rhs),rhsMax =  -1.51267887105178E-15  8.90540993821649E-02
 cg2d: Sum(rhs),rhsMax =  -1.60982338570648E-15  8.95427879728151E-02
 cg2d: Sum(rhs),rhsMax =  -1.15185638804860E-15  8.99681685333812E-02
 cg2d: Sum(rhs),rhsMax =  -9.57567358739198E-16  9.03087173521526E-02
 cg2d: Sum(rhs),rhsMax =  -3.95516952522712E-16  9.05455212397803E-02
 cg2d: Sum(rhs),rhsMax =  -1.59594559789866E-16  9.06653204375858E-02
 cg2d: Sum(rhs),rhsMax =  -2.08166817117217E-16  9.06626166087543E-02
 cg2d: Sum(rhs),rhsMax =  -3.46944695195361E-16  9.05405398866320E-02
 cg2d: Sum(rhs),rhsMax =  -8.77770078844264E-16  9.03103702784225E-02
 cg2d: Sum(rhs),rhsMax =  -1.29063426612674E-15  8.99898243569517E-02
 cg2d: Sum(rhs),rhsMax =  -1.14665221762067E-15  8.96004121583735E-02
 cg2d: Sum(rhs),rhsMax =  -1.48839274238810E-15  8.91643089486394E-02
 cg2d: Sum(rhs),rhsMax =  -1.75207071073658E-15  8.87012495884512E-02
 cg2d: Sum(rhs),rhsMax =  -1.84574577843932E-15  8.82259317723834E-02
 cg2d: Sum(rhs),rhsMax =  -2.10595429983584E-15  8.77463159913918E-02
 cg2d: Sum(rhs),rhsMax =  -2.28983498828939E-15  8.72630548365497E-02
 cg2d: Sum(rhs),rhsMax =  -2.26207941267376E-15  8.67700999618248E-02
 cg2d: Sum(rhs),rhsMax =  -2.65759636519647E-15  8.62563514129085E-02
 cg2d: Sum(rhs),rhsMax =  -2.51708376364235E-15  8.57080582610698E-02
 cg2d: Sum(rhs),rhsMax =  -2.12503625807159E-15  8.51115729603204E-02
 cg2d: Sum(rhs),rhsMax =  -2.82759926584220E-15  8.44560183413706E-02
 cg2d: Sum(rhs),rhsMax =  -2.54657406273395E-15  8.37354506564675E-02
 cg2d: Sum(rhs),rhsMax =  -3.06178693509906E-15  8.29501901494696E-02
 cg2d: Sum(rhs),rhsMax =  -3.34498054255228E-15  8.21071284349015E-02
 cg2d: Sum(rhs),rhsMax =  -3.84067777581265E-15  8.12189876987297E-02
 cg2d: Sum(rhs),rhsMax =  -3.88838267140201E-15  8.03026735534551E-02
 cg2d: Sum(rhs),rhsMax =  -3.34281213820731E-15  7.93770039611906E-02
 cg2d: Sum(rhs),rhsMax =  -3.40699690681845E-15  7.84601882330288E-02
 cg2d: Sum(rhs),rhsMax =  -3.17454396103756E-15  7.75674588950763E-02
 cg2d: Sum(rhs),rhsMax =  -2.99066327258402E-15  7.67092226693782E-02
 cg2d: Sum(rhs),rhsMax =  -2.76514922070703E-15  7.58900036219931E-02
 cg2d: Sum(rhs),rhsMax =  -2.98719382563206E-15  7.51083191353183E-02
 cg2d: Sum(rhs),rhsMax =  -2.93515212135276E-15  7.43574802447090E-02
 cg2d: Sum(rhs),rhsMax =  -3.00454106039183E-15  7.36271655146653E-02
 cg2d: Sum(rhs),rhsMax =  -2.49106291150269E-15  7.29055030224260E-02
 cg2d: Sum(rhs),rhsMax =  -2.47024622979097E-15  7.21813241499672E-02
 --> objf_test(bi,bj)   = -0.849803606628751E+00
 --> objf_tracer(bi,bj) =  0.000000000000000E+00
 --> objf_atl(bi,bj)    =  0.000000000000000E+00
  local fc = -0.849803606628751E+00
 global fc = -0.849803606628751E+00
(PID.TID 0000.0001)  MDSREADFIELD: opening file: xx_depth.0000000000.001.001.data
 grad-res -------------------------------
 grad-res     0    5    5    2    1   -.849803598E+00 -.849803589E+00 -.849803607E+00
 grad-res     0    5    5    5   20   0.868497016E-04 0.868484318E-04 0.146210012E-04
(PID.TID 0000.0001)       precision_grdchk_result ADM    -8.49803597943908E-01     8.68497016091230E-05
 ph-grd  ierr ---------------------------
 ph-grd  ierr =  0, icomp =  5, ichknum =  5
(PID.TID 0000.0001)  MDSREADFIELD: opening file: adxx_depth.0000000000.001.001.data
(PID.TID 0000.0001)  MDSREADFIELD: opening file: xx_depth.0000000000.001.001.data
(PID.TID 0000.0001)  MDSREADFIELD: opening global file: walls.bigRidge
(PID.TID 0000.0001) // =======================================================
(PID.TID 0000.0001) // Field Bottom depths (ini_depths) at iteration          1
(PID.TID 0000.0001) // CMIN =         -5.000000000000000E+03
(PID.TID 0000.0001) // CMAX =         -2.000000000000000E+03
(PID.TID 0000.0001) // CINT =          1.111111111111111E+02
(PID.TID 0000.0001) // SYMBOLS (CMIN->CMAX): -abcdefghijklmnopqrstuvwxyz+
(PID.TID 0000.0001) //                  0.0: .
(PID.TID 0000.0001) // RANGE I (Lo:Hi:Step):(  -1:   7:   1)
(PID.TID 0000.0001) // RANGE J (Lo:Hi:Step):(   7:  -1:  -1)
(PID.TID 0000.0001) // RANGE K (Lo:Hi:Step):(   1:   1:   1)
(PID.TID 0000.0001) // =======================================================
(PID.TID 0000.0001) K =   1
(PID.TID 0000.0001) //
(PID.TID 0000.0001) // |--J--|*01234567
(PID.TID 0000.0001) //      7 ----+----
(PID.TID 0000.0001) //      6 .........
(PID.TID 0000.0001) //      5 ----+----
(PID.TID 0000.0001) //      4 ----+----
(PID.TID 0000.0001) //      3 ----+----
(PID.TID 0000.0001) //      2 ----+----
(PID.TID 0000.0001) //      1 .........
(PID.TID 0000.0001) //      0 ----+----
(PID.TID 0000.0001) //     -1 ----+----
(PID.TID 0000.0001) // =======================================================
(PID.TID 0000.0001) // END OF FIELD                                          =
(PID.TID 0000.0001) // =======================================================
(PID.TID 0000.0001) 
(PID.TID 0000.0001) // =======================================================
(PID.TID 0000.0001) // Field Model R_low (ini_masks_etc) at iteration          1
(PID.TID 0000.0001) // CMIN =         -5.000000000000000E+03
(PID.TID 0000.0001) // CMAX =         -2.000000000000000E+03
(PID.TID 0000.0001) // CINT =          1.111111111111111E+02
(PID.TID 0000.0001) // SYMBOLS (CMIN->CMAX): -abcdefghijklmnopqrstuvwxyz+
(PID.TID 0000.0001) //                  0.0: .
(PID.TID 0000.0001) // RANGE I (Lo:Hi:Step):(  -1:   7:   1)
(PID.TID 0000.0001) // RANGE J (Lo:Hi:Step):(   7:  -1:  -1)
(PID.TID 0000.0001) // RANGE K (Lo:Hi:Step):(   1:   1:   1)
(PID.TID 0000.0001) // =======================================================
(PID.TID 0000.0001) K =   1
(PID.TID 0000.0001) //
(PID.TID 0000.0001) // |--J--|*01234567
(PID.TID 0000.0001) //      7 ----+----
(PID.TID 0000.0001) //      6 .........
(PID.TID 0000.0001) //      5 ----+----
(PID.TID 0000.0001) //      4 ----+----
(PID.TID 0000.0001) //      3 ----+----
(PID.TID 0000.0001) //      2 ----+----
(PID.TID 0000.0001) //      1 .........
(PID.TID 0000.0001) //      0 ----+----
(PID.TID 0000.0001) //     -1 ----+----
(PID.TID 0000.0001) // =======================================================
(PID.TID 0000.0001) // END OF FIELD                                          =
(PID.TID 0000.0001) // =======================================================
(PID.TID 0000.0001) 
(PID.TID 0000.0001) // =======================================================
(PID.TID 0000.0001) // Field Model Ro_surf (ini_masks_etc) at iteration          1
(PID.TID 0000.0001) // CMIN =          2.273736754432321E-13
(PID.TID 0000.0001) // CMAX =          2.273736754432321E-13
(PID.TID 0000.0001) // CINT =          0.000000000000000E+00
(PID.TID 0000.0001) // SYMBOLS (CMIN->CMAX): -abcdefghijklmnopqrstuvwxyz+
(PID.TID 0000.0001) //                  0.0: .
(PID.TID 0000.0001) // RANGE I (Lo:Hi:Step):(  -1:   7:   1)
(PID.TID 0000.0001) // RANGE J (Lo:Hi:Step):(   7:  -1:  -1)
(PID.TID 0000.0001) // RANGE K (Lo:Hi:Step):(   1:   1:   1)
(PID.TID 0000.0001) // =======================================================
(PID.TID 0000.0001) // =======================================================
(PID.TID 0000.0001) // END OF FIELD                                          =
(PID.TID 0000.0001) // =======================================================
(PID.TID 0000.0001) 
(PID.TID 0000.0001) // =======================================================
(PID.TID 0000.0001) // Field hFacC at iteration          1
(PID.TID 0000.0001) // CMIN =          1.000000000000000E+00
(PID.TID 0000.0001) // CMAX =          1.000000000000000E+00
(PID.TID 0000.0001) // CINT =          0.000000000000000E+00
(PID.TID 0000.0001) // SYMBOLS (CMIN->CMAX): -abcdefghijklmnopqrstuvwxyz+
(PID.TID 0000.0001) //                  0.0: .
(PID.TID 0000.0001) // RANGE I (Lo:Hi:Step):(  -1:   7:   1)
(PID.TID 0000.0001) // RANGE J (Lo:Hi:Step):(   7:  -1:  -1)
(PID.TID 0000.0001) // RANGE K (Lo:Hi:Step):(   1:   1:   1)
(PID.TID 0000.0001) // =======================================================
(PID.TID 0000.0001) // =======================================================
(PID.TID 0000.0001) // END OF FIELD                                          =
(PID.TID 0000.0001) // =======================================================
(PID.TID 0000.0001) 
(PID.TID 0000.0001) // =======================================================
(PID.TID 0000.0001) // Field hFacW at iteration          1
(PID.TID 0000.0001) // CMIN =          1.000000000000000E+00
(PID.TID 0000.0001) // CMAX =          1.000000000000000E+00
(PID.TID 0000.0001) // CINT =          0.000000000000000E+00
(PID.TID 0000.0001) // SYMBOLS (CMIN->CMAX): -abcdefghijklmnopqrstuvwxyz+
(PID.TID 0000.0001) //                  0.0: .
(PID.TID 0000.0001) // RANGE I (Lo:Hi:Step):(  -1:   7:   1)
(PID.TID 0000.0001) // RANGE J (Lo:Hi:Step):(   7:  -1:  -1)
(PID.TID 0000.0001) // RANGE K (Lo:Hi:Step):(   1:   1:   1)
(PID.TID 0000.0001) // =======================================================
(PID.TID 0000.0001) // =======================================================
(PID.TID 0000.0001) // END OF FIELD                                          =
(PID.TID 0000.0001) // =======================================================
(PID.TID 0000.0001) 
(PID.TID 0000.0001) // =======================================================
(PID.TID 0000.0001) // Field hFacS at iteration          1
(PID.TID 0000.0001) // CMIN =          1.000000000000000E+00
(PID.TID 0000.0001) // CMAX =          1.000000000000000E+00
(PID.TID 0000.0001) // CINT =          0.000000000000000E+00
(PID.TID 0000.0001) // SYMBOLS (CMIN->CMAX): -abcdefghijklmnopqrstuvwxyz+
(PID.TID 0000.0001) //                  0.0: .
(PID.TID 0000.0001) // RANGE I (Lo:Hi:Step):(  -1:   7:   1)
(PID.TID 0000.0001) // RANGE J (Lo:Hi:Step):(   7:  -1:  -1)
(PID.TID 0000.0001) // RANGE K (Lo:Hi:Step):(   1:   1:   1)
(PID.TID 0000.0001) // =======================================================
(PID.TID 0000.0001) // =======================================================
(PID.TID 0000.0001) // END OF FIELD                                          =
(PID.TID 0000.0001) // =======================================================
(PID.TID 0000.0001) 
(PID.TID 0000.0001) %MON surfExpanfCori_max           =  -1.0735540000000E-04
(PID.TID 0000.0001) %MON surfExpanfCori_min           =  -1.1783060000000E-04
(PID.TID 0000.0001) %MON surfExpanfCori_mean          =  -1.1259300000000E-04
(PID.TID 0000.0001) %MON surfExpanfCori_sd            =   3.7035424771427E-06
(PID.TID 0000.0001) %MON surfExpanfCoriG_max          =  -1.0866480000000E-04
(PID.TID 0000.0001) %MON surfExpanfCoriG_min          =  -1.1914000000000E-04
(PID.TID 0000.0001) %MON surfExpanfCoriG_mean         =  -1.1390240000000E-04
(PID.TID 0000.0001) %MON surfExpanfCoriG_sd           =   3.7035424771427E-06
(PID.TID 0000.0001) %MON surfExpanfCoriCos_max        =   0.0000000000000E+00
(PID.TID 0000.0001) %MON surfExpanfCoriCos_min        =   0.0000000000000E+00
(PID.TID 0000.0001) %MON surfExpanfCoriCos_mean       =   0.0000000000000E+00
(PID.TID 0000.0001) %MON surfExpanfCoriCos_sd         =   0.0000000000000E+00
(PID.TID 0000.0001) INI_CG2D: CG2D normalisation factor =  1.9999999999999996E-04
(PID.TID 0000.0001) 
                     ctrl_depth_ini: ctrl update R_low,
                                     adding the control vector.
(PID.TID 0000.0001)  MDSREADFIELD: opening file: xx_depth.0000000000.001.001.data
(PID.TID 0000.0001) // =======================================================
(PID.TID 0000.0001) // Field Model Ro_surf (update_masks_etc) at iteration          1
(PID.TID 0000.0001) // CMIN =          2.273736754432321E-13
(PID.TID 0000.0001) // CMAX =          2.273736754432321E-13
(PID.TID 0000.0001) // CINT =          0.000000000000000E+00
(PID.TID 0000.0001) // SYMBOLS (CMIN->CMAX): -abcdefghijklmnopqrstuvwxyz+
(PID.TID 0000.0001) //                  0.0: .
(PID.TID 0000.0001) // RANGE I (Lo:Hi:Step):(  -1:   7:   1)
(PID.TID 0000.0001) // RANGE J (Lo:Hi:Step):(   7:  -1:  -1)
(PID.TID 0000.0001) // RANGE K (Lo:Hi:Step):(   1:   1:   1)
(PID.TID 0000.0001) // =======================================================
(PID.TID 0000.0001) // =======================================================
(PID.TID 0000.0001) // END OF FIELD                                          =
(PID.TID 0000.0001) // =======================================================
(PID.TID 0000.0001) 
(PID.TID 0000.0001) // =======================================================
(PID.TID 0000.0001) // Field hFacC at iteration          1
(PID.TID 0000.0001) // CMIN =          1.000000000000000E+00
(PID.TID 0000.0001) // CMAX =          1.000000000000000E+00
(PID.TID 0000.0001) // CINT =          0.000000000000000E+00
(PID.TID 0000.0001) // SYMBOLS (CMIN->CMAX): -abcdefghijklmnopqrstuvwxyz+
(PID.TID 0000.0001) //                  0.0: .
(PID.TID 0000.0001) // RANGE I (Lo:Hi:Step):(  -1:   7:   1)
(PID.TID 0000.0001) // RANGE J (Lo:Hi:Step):(   7:  -1:  -1)
(PID.TID 0000.0001) // RANGE K (Lo:Hi:Step):(   1:   1:   1)
(PID.TID 0000.0001) // =======================================================
(PID.TID 0000.0001) // =======================================================
(PID.TID 0000.0001) // END OF FIELD                                          =
(PID.TID 0000.0001) // =======================================================
(PID.TID 0000.0001) 
(PID.TID 0000.0001) // =======================================================
(PID.TID 0000.0001) // Field hFacW at iteration          1
(PID.TID 0000.0001) // CMIN =          1.000000000000000E+00
(PID.TID 0000.0001) // CMAX =          1.000000000000000E+00
(PID.TID 0000.0001) // CINT =          0.000000000000000E+00
(PID.TID 0000.0001) // SYMBOLS (CMIN->CMAX): -abcdefghijklmnopqrstuvwxyz+
(PID.TID 0000.0001) //                  0.0: .
(PID.TID 0000.0001) // RANGE I (Lo:Hi:Step):(  -1:   7:   1)
(PID.TID 0000.0001) // RANGE J (Lo:Hi:Step):(   7:  -1:  -1)
(PID.TID 0000.0001) // RANGE K (Lo:Hi:Step):(   1:   1:   1)
(PID.TID 0000.0001) // =======================================================
(PID.TID 0000.0001) // =======================================================
(PID.TID 0000.0001) // END OF FIELD                                          =
(PID.TID 0000.0001) // =======================================================
(PID.TID 0000.0001) 
(PID.TID 0000.0001) // =======================================================
(PID.TID 0000.0001) // Field hFacS at iteration          1
(PID.TID 0000.0001) // CMIN =          1.000000000000000E+00
(PID.TID 0000.0001) // CMAX =          1.000000000000000E+00
(PID.TID 0000.0001) // CINT =          0.000000000000000E+00
(PID.TID 0000.0001) // SYMBOLS (CMIN->CMAX): -abcdefghijklmnopqrstuvwxyz+
(PID.TID 0000.0001) //                  0.0: .
(PID.TID 0000.0001) // RANGE I (Lo:Hi:Step):(  -1:   7:   1)
(PID.TID 0000.0001) // RANGE J (Lo:Hi:Step):(   7:  -1:  -1)
(PID.TID 0000.0001) // RANGE K (Lo:Hi:Step):(   1:   1:   1)
(PID.TID 0000.0001) // =======================================================
(PID.TID 0000.0001) // =======================================================
(PID.TID 0000.0001) // END OF FIELD                                          =
(PID.TID 0000.0001) // =======================================================
(PID.TID 0000.0001) 
(PID.TID 0000.0001) // =======================================================
(PID.TID 0000.0001) // Field Initial Temperature at iteration          1
(PID.TID 0000.0001) // CMIN =          4.000000000000000E+00
(PID.TID 0000.0001) // CMAX =          4.000000000000000E+00
(PID.TID 0000.0001) // CINT =          0.000000000000000E+00
(PID.TID 0000.0001) // SYMBOLS (CMIN->CMAX): -abcdefghijklmnopqrstuvwxyz+
(PID.TID 0000.0001) //                  0.0: .
(PID.TID 0000.0001) // RANGE I (Lo:Hi:Step):(   1:   5:   1)
(PID.TID 0000.0001) // RANGE J (Lo:Hi:Step):(   5:   1:  -1)
(PID.TID 0000.0001) // RANGE K (Lo:Hi:Step):(   1:   1:   1)
(PID.TID 0000.0001) // =======================================================
(PID.TID 0000.0001) // =======================================================
(PID.TID 0000.0001) // END OF FIELD                                          =
(PID.TID 0000.0001) // =======================================================
(PID.TID 0000.0001) 
(PID.TID 0000.0001) // =======================================================
(PID.TID 0000.0001) // Field Initial Salinity at iteration          1
(PID.TID 0000.0001) // CMIN =          3.500000000000000E+01
(PID.TID 0000.0001) // CMAX =          3.500000000000000E+01
(PID.TID 0000.0001) // CINT =          0.000000000000000E+00
(PID.TID 0000.0001) // SYMBOLS (CMIN->CMAX): -abcdefghijklmnopqrstuvwxyz+
(PID.TID 0000.0001) //                  0.0: .
(PID.TID 0000.0001) // RANGE I (Lo:Hi:Step):(   1:   5:   1)
(PID.TID 0000.0001) // RANGE J (Lo:Hi:Step):(   5:   1:  -1)
(PID.TID 0000.0001) // RANGE K (Lo:Hi:Step):(   1:   1:   1)
(PID.TID 0000.0001) // =======================================================
(PID.TID 0000.0001) // =======================================================
(PID.TID 0000.0001) // END OF FIELD                                          =
(PID.TID 0000.0001) // =======================================================
(PID.TID 0000.0001) 
(PID.TID 0000.0001) Start initial hydrostatic pressure computation
(PID.TID 0000.0001) Pressure is predetermined for buoyancyRelation OCEANIC
(PID.TID 0000.0001) 
(PID.TID 0000.0001)  MDSREADFIELD: opening global file: windx.sin_y
(PID.TID 0000.0001) // =======================================================
(PID.TID 0000.0001) // Model current state
(PID.TID 0000.0001) // =======================================================
(PID.TID 0000.0001) 
 cg2d: Sum(rhs),rhsMax =   0.00000000000000E+00  0.00000000000000E+00
 cg2d: Sum(rhs),rhsMax =   4.68375338513738E-16  2.62483626325265E-03
 cg2d: Sum(rhs),rhsMax =   3.74700270810990E-16  5.13362633358922E-03
 cg2d: Sum(rhs),rhsMax =   1.18828558104411E-16  7.16168458895517E-03
 cg2d: Sum(rhs),rhsMax =  -3.70363462121048E-16  9.29466755350646E-03
 cg2d: Sum(rhs),rhsMax =  -1.97758476261356E-16  1.15304356738284E-02
 cg2d: Sum(rhs),rhsMax =  -5.55111512312578E-16  1.37809802326232E-02
 cg2d: Sum(rhs),rhsMax =  -5.93275428784068E-16  1.60011247499881E-02
 cg2d: Sum(rhs),rhsMax =  -2.63677968348475E-16  1.82027337989667E-02
 cg2d: Sum(rhs),rhsMax =  -4.57966997657877E-16  2.04493560969613E-02
 cg2d: Sum(rhs),rhsMax =  -5.96744875736022E-16  2.25706027861050E-02
 cg2d: Sum(rhs),rhsMax =  -4.57966997657877E-16  2.45301657312413E-02
 cg2d: Sum(rhs),rhsMax =   2.77555756156289E-16  2.63097944559970E-02
 cg2d: Sum(rhs),rhsMax =   3.88578058618805E-16  2.79110497444884E-02
 cg2d: Sum(rhs),rhsMax =   4.16333634234434E-16  2.93538602663959E-02
 cg2d: Sum(rhs),rhsMax =   7.14706072102445E-16  3.06720439453710E-02
 cg2d: Sum(rhs),rhsMax =   7.21644966006352E-16  3.19067817031431E-02
 cg2d: Sum(rhs),rhsMax =  -6.93889390390723E-17  3.30992668150284E-02
 cg2d: Sum(rhs),rhsMax =   3.60822483003176E-16  3.42837433456259E-02
 cg2d: Sum(rhs),rhsMax =  -2.28983498828939E-16  3.54819651513266E-02
 cg2d: Sum(rhs),rhsMax =  -5.96744875736022E-16  3.66998059317606E-02
 cg2d: Sum(rhs),rhsMax =  -4.78783679369599E-16  3.79264046502619E-02
 cg2d: Sum(rhs),rhsMax =  -4.02455846426619E-16  3.91358859535705E-02
 cg2d: Sum(rhs),rhsMax =  -4.57966997657877E-16  4.02913640566854E-02
 cg2d: Sum(rhs),rhsMax =  -1.40165656858926E-15  4.13506296141013E-02
 cg2d: Sum(rhs),rhsMax =  -2.19269047363468E-15  4.22726608329003E-02
 cg2d: Sum(rhs),rhsMax =  -2.15105711021124E-15  4.30239437090347E-02
 cg2d: Sum(rhs),rhsMax =  -1.92901250528621E-15  4.35835864277245E-02
 cg2d: Sum(rhs),rhsMax =  -1.91513471747840E-15  4.39463980760304E-02
 cg2d: Sum(rhs),rhsMax =  -2.20656826144250E-15  4.41234517104845E-02
 cg2d: Sum(rhs),rhsMax =  -2.26207941267376E-15  4.41400964930286E-02
 cg2d: Sum(rhs),rhsMax =  -2.83106871279415E-15  4.40318244224653E-02
 cg2d: Sum(rhs),rhsMax =  -3.20576898360514E-15  4.38387400578820E-02
 cg2d: Sum(rhs),rhsMax =  -3.21964677141295E-15  4.54379563117674E-02
 cg2d: Sum(rhs),rhsMax =  -3.12250225675825E-15  4.77259344483540E-02
 cg2d: Sum(rhs),rhsMax =  -2.91433543964104E-15  4.99949946033636E-02
 cg2d: Sum(rhs),rhsMax =  -2.83106871279415E-15  5.22073349654131E-02
 cg2d: Sum(rhs),rhsMax =  -2.88657986402541E-15  5.43317158590000E-02
 cg2d: Sum(rhs),rhsMax =  -2.88657986402541E-15  5.63476438078441E-02
 cg2d: Sum(rhs),rhsMax =  -2.33146835171283E-15  5.82478251462897E-02
 cg2d: Sum(rhs),rhsMax =  -2.08166817117217E-15  6.00385231585437E-02
 cg2d: Sum(rhs),rhsMax =  -2.47024622979097E-15  6.17377933464131E-02
 cg2d: Sum(rhs),rhsMax =  -2.24820162486594E-15  6.33719187380644E-02
 cg2d: Sum(rhs),rhsMax =  -1.80411241501588E-15  6.49706566340660E-02
 cg2d: Sum(rhs),rhsMax =  -2.08166817117217E-15  6.65620859944199E-02
 cg2d: Sum(rhs),rhsMax =  -1.63757896132211E-15  6.81678817317668E-02
 cg2d: Sum(rhs),rhsMax =  -1.33226762955019E-15  6.97997401611088E-02
 cg2d: Sum(rhs),rhsMax =  -1.19348975147204E-15  7.14574673160632E-02
 cg2d: Sum(rhs),rhsMax =  -1.41553435639707E-15  7.31289633938648E-02
 cg2d: Sum(rhs),rhsMax =  -1.58206781009085E-15  7.47920405870384E-02
 cg2d: Sum(rhs),rhsMax =  -1.30451205393456E-15  7.64177410452352E-02
 cg2d: Sum(rhs),rhsMax =  -1.05471187339390E-15  7.79746105001661E-02
 cg2d: Sum(rhs),rhsMax =  -1.27675647831893E-15  7.94332554921247E-02
 cg2d: Sum(rhs),rhsMax =  -1.55431223447522E-15  8.07704833488180E-02
 cg2d: Sum(rhs),rhsMax =  -1.24900090270330E-15  8.19723989507024E-02
 cg2d: Sum(rhs),rhsMax =  -9.71445146547012E-16  8.30360026257323E-02
 cg2d: Sum(rhs),rhsMax =  -2.77555756156289E-16  8.39690756236273E-02
 cg2d: Sum(rhs),rhsMax =  -2.63677968348475E-16  8.47884154734737E-02
 cg2d: Sum(rhs),rhsMax =  -8.74300631892311E-16  8.55167463336058E-02
 cg2d: Sum(rhs),rhsMax =  -1.48492329543615E-15  8.61788332382281E-02
 cg2d: Sum(rhs),rhsMax =  -1.62370117351429E-15  8.67974393087674E-02
 cg2d: Sum(rhs),rhsMax =  -1.08246744900953E-15  8.73897659697361E-02
 cg2d: Sum(rhs),rhsMax =  -1.60982338570648E-15  8.79649138101978E-02
 cg2d: Sum(rhs),rhsMax =  -2.05391259555654E-15  8.85227197581854E-02
 cg2d: Sum(rhs),rhsMax =  -1.77635683940025E-15  8.90540992836191E-02
 cg2d: Sum(rhs),rhsMax =  -1.79023462720806E-15  8.95427878987469E-02
 cg2d: Sum(rhs),rhsMax =  -2.15105711021124E-15  8.99681684846528E-02
 cg2d: Sum(rhs),rhsMax =  -2.28289609438548E-15  9.03087173294424E-02
 cg2d: Sum(rhs),rhsMax =  -2.17881268582687E-15  9.05455212436123E-02
 cg2d: Sum(rhs),rhsMax =  -2.42861286636753E-15  9.06653204683679E-02
 cg2d: Sum(rhs),rhsMax =  -2.69229083471600E-15  9.06626166668238E-02
 cg2d: Sum(rhs),rhsMax =  -2.33840724561674E-15  9.05405399722964E-02
 cg2d: Sum(rhs),rhsMax =  -2.59167687310935E-15  9.03103703919900E-02
 cg2d: Sum(rhs),rhsMax =  -2.60902410786912E-15  8.99898244987471E-02
 cg2d: Sum(rhs),rhsMax =  -3.00280633691585E-15  8.96004123287361E-02
 cg2d: Sum(rhs),rhsMax =  -2.64046597087120E-15  8.91643091479034E-02
 cg2d: Sum(rhs),rhsMax =  -2.68882138776405E-15  8.87012498169118E-02
 cg2d: Sum(rhs),rhsMax =  -2.75474087985117E-15  8.82259320302552E-02
 cg2d: Sum(rhs),rhsMax =  -2.85535484145782E-15  8.77463162787636E-02
 cg2d: Sum(rhs),rhsMax =  -2.79984369022657E-15  8.72630551533455E-02
 cg2d: Sum(rhs),rhsMax =  -3.12944115066216E-15  8.67701003077748E-02
 cg2d: Sum(rhs),rhsMax =  -3.47638584585752E-15  8.62563517875357E-02
 cg2d: Sum(rhs),rhsMax =  -3.64118457607532E-15  8.57080586636936E-02
 cg2d: Sum(rhs),rhsMax =  -3.59434704222394E-15  8.51115733900757E-02
 cg2d: Sum(rhs),rhsMax =  -4.17374468320020E-15  8.44560187972405E-02
 cg2d: Sum(rhs),rhsMax =  -3.87016807490426E-15  8.37354511373242E-02
 cg2d: Sum(rhs),rhsMax =  -3.46771222847764E-15  8.29501906541160E-02
 cg2d: Sum(rhs),rhsMax =  -3.25607596440847E-15  8.21071289621094E-02
 cg2d: Sum(rhs),rhsMax =  -3.32199545649559E-15  8.12189882472674E-02
 cg2d: Sum(rhs),rhsMax =  -3.60822483003176E-15  8.03026741221026E-02
 cg2d: Sum(rhs),rhsMax =  -3.78516662458139E-15  7.93770045487387E-02
 cg2d: Sum(rhs),rhsMax =  -3.81292220019702E-15  7.84601888382669E-02
 cg2d: Sum(rhs),rhsMax =  -4.07139599811757E-15  7.75674595167668E-02
 cg2d: Sum(rhs),rhsMax =  -3.83373888190874E-15  7.67092233062275E-02
 cg2d: Sum(rhs),rhsMax =  -4.21884749357559E-15  7.58900042726210E-02
 cg2d: Sum(rhs),rhsMax =  -4.09394740330526E-15  7.51083197982327E-02
 cg2d: Sum(rhs),rhsMax =  -4.18415302405606E-15  7.43574809182910E-02
 cg2d: Sum(rhs),rhsMax =  -4.20496970576778E-15  7.36271661971664E-02
 cg2d: Sum(rhs),rhsMax =  -3.36536354339501E-15  7.29055037119789E-02
 cg2d: Sum(rhs),rhsMax =  -3.16413562018170E-15  7.21813248446090E-02
 --> objf_test(bi,bj)   = -0.849803596027067E+00
 --> objf_tracer(bi,bj) =  0.000000000000000E+00
 --> objf_atl(bi,bj)    =  0.000000000000000E+00
  local fc = -0.849803596027067E+00
 global fc = -0.849803596027067E+00
 ph-check fcpertplus =  -0.849803596
(PID.TID 0000.0001)  MDSREADFIELD: opening file: xx_depth.0000000000.001.001.data
 ph-check fcpertminus =  -0.849803598
(PID.TID 0000.0001)  MDSREADFIELD: opening file: xx_depth.0000000000.001.001.data
(PID.TID 0000.0001)  MDSREADFIELD: opening global file: walls.bigRidge
(PID.TID 0000.0001) // =======================================================
(PID.TID 0000.0001) // Field Bottom depths (ini_depths) at iteration          1
(PID.TID 0000.0001) // CMIN =         -5.000000000000000E+03
(PID.TID 0000.0001) // CMAX =         -2.000000000000000E+03
(PID.TID 0000.0001) // CINT =          1.111111111111111E+02
(PID.TID 0000.0001) // SYMBOLS (CMIN->CMAX): -abcdefghijklmnopqrstuvwxyz+
(PID.TID 0000.0001) //                  0.0: .
(PID.TID 0000.0001) // RANGE I (Lo:Hi:Step):(  -1:   7:   1)
(PID.TID 0000.0001) // RANGE J (Lo:Hi:Step):(   7:  -1:  -1)
(PID.TID 0000.0001) // RANGE K (Lo:Hi:Step):(   1:   1:   1)
(PID.TID 0000.0001) // =======================================================
(PID.TID 0000.0001) K =   1
(PID.TID 0000.0001) //
(PID.TID 0000.0001) // |--J--|*01234567
(PID.TID 0000.0001) //      7 ----+----
(PID.TID 0000.0001) //      6 .........
(PID.TID 0000.0001) //      5 ----+----
(PID.TID 0000.0001) //      4 ----+----
(PID.TID 0000.0001) //      3 ----+----
(PID.TID 0000.0001) //      2 ----+----
(PID.TID 0000.0001) //      1 .........
(PID.TID 0000.0001) //      0 ----+----
(PID.TID 0000.0001) //     -1 ----+----
(PID.TID 0000.0001) // =======================================================
(PID.TID 0000.0001) // END OF FIELD                                          =
(PID.TID 0000.0001) // =======================================================
(PID.TID 0000.0001) 
(PID.TID 0000.0001) // =======================================================
(PID.TID 0000.0001) // Field Model R_low (ini_masks_etc) at iteration          1
(PID.TID 0000.0001) // CMIN =         -5.000000000000000E+03
(PID.TID 0000.0001) // CMAX =         -2.000000000000000E+03
(PID.TID 0000.0001) // CINT =          1.111111111111111E+02
(PID.TID 0000.0001) // SYMBOLS (CMIN->CMAX): -abcdefghijklmnopqrstuvwxyz+
(PID.TID 0000.0001) //                  0.0: .
(PID.TID 0000.0001) // RANGE I (Lo:Hi:Step):(  -1:   7:   1)
(PID.TID 0000.0001) // RANGE J (Lo:Hi:Step):(   7:  -1:  -1)
(PID.TID 0000.0001) // RANGE K (Lo:Hi:Step):(   1:   1:   1)
(PID.TID 0000.0001) // =======================================================
(PID.TID 0000.0001) K =   1
(PID.TID 0000.0001) //
(PID.TID 0000.0001) // |--J--|*01234567
(PID.TID 0000.0001) //      7 ----+----
(PID.TID 0000.0001) //      6 .........
(PID.TID 0000.0001) //      5 ----+----
(PID.TID 0000.0001) //      4 ----+----
(PID.TID 0000.0001) //      3 ----+----
(PID.TID 0000.0001) //      2 ----+----
(PID.TID 0000.0001) //      1 .........
(PID.TID 0000.0001) //      0 ----+----
(PID.TID 0000.0001) //     -1 ----+----
(PID.TID 0000.0001) // =======================================================
(PID.TID 0000.0001) // END OF FIELD                                          =
(PID.TID 0000.0001) // =======================================================
(PID.TID 0000.0001) 
(PID.TID 0000.0001) // =======================================================
(PID.TID 0000.0001) // Field Model Ro_surf (ini_masks_etc) at iteration          1
(PID.TID 0000.0001) // CMIN =          2.273736754432321E-13
(PID.TID 0000.0001) // CMAX =          2.273736754432321E-13
(PID.TID 0000.0001) // CINT =          0.000000000000000E+00
(PID.TID 0000.0001) // SYMBOLS (CMIN->CMAX): -abcdefghijklmnopqrstuvwxyz+
(PID.TID 0000.0001) //                  0.0: .
(PID.TID 0000.0001) // RANGE I (Lo:Hi:Step):(  -1:   7:   1)
(PID.TID 0000.0001) // RANGE J (Lo:Hi:Step):(   7:  -1:  -1)
(PID.TID 0000.0001) // RANGE K (Lo:Hi:Step):(   1:   1:   1)
(PID.TID 0000.0001) // =======================================================
(PID.TID 0000.0001) // =======================================================
(PID.TID 0000.0001) // END OF FIELD                                          =
(PID.TID 0000.0001) // =======================================================
(PID.TID 0000.0001) 
(PID.TID 0000.0001) // =======================================================
(PID.TID 0000.0001) // Field hFacC at iteration          1
(PID.TID 0000.0001) // CMIN =          1.000000000000000E+00
(PID.TID 0000.0001) // CMAX =          1.000000000000000E+00
(PID.TID 0000.0001) // CINT =          0.000000000000000E+00
(PID.TID 0000.0001) // SYMBOLS (CMIN->CMAX): -abcdefghijklmnopqrstuvwxyz+
(PID.TID 0000.0001) //                  0.0: .
(PID.TID 0000.0001) // RANGE I (Lo:Hi:Step):(  -1:   7:   1)
(PID.TID 0000.0001) // RANGE J (Lo:Hi:Step):(   7:  -1:  -1)
(PID.TID 0000.0001) // RANGE K (Lo:Hi:Step):(   1:   1:   1)
(PID.TID 0000.0001) // =======================================================
(PID.TID 0000.0001) // =======================================================
(PID.TID 0000.0001) // END OF FIELD                                          =
(PID.TID 0000.0001) // =======================================================
(PID.TID 0000.0001) 
(PID.TID 0000.0001) // =======================================================
(PID.TID 0000.0001) // Field hFacW at iteration          1
(PID.TID 0000.0001) // CMIN =          1.000000000000000E+00
(PID.TID 0000.0001) // CMAX =          1.000000000000000E+00
(PID.TID 0000.0001) // CINT =          0.000000000000000E+00
(PID.TID 0000.0001) // SYMBOLS (CMIN->CMAX): -abcdefghijklmnopqrstuvwxyz+
(PID.TID 0000.0001) //                  0.0: .
(PID.TID 0000.0001) // RANGE I (Lo:Hi:Step):(  -1:   7:   1)
(PID.TID 0000.0001) // RANGE J (Lo:Hi:Step):(   7:  -1:  -1)
(PID.TID 0000.0001) // RANGE K (Lo:Hi:Step):(   1:   1:   1)
(PID.TID 0000.0001) // =======================================================
(PID.TID 0000.0001) // =======================================================
(PID.TID 0000.0001) // END OF FIELD                                          =
(PID.TID 0000.0001) // =======================================================
(PID.TID 0000.0001) 
(PID.TID 0000.0001) // =======================================================
(PID.TID 0000.0001) // Field hFacS at iteration          1
(PID.TID 0000.0001) // CMIN =          1.000000000000000E+00
(PID.TID 0000.0001) // CMAX =          1.000000000000000E+00
(PID.TID 0000.0001) // CINT =          0.000000000000000E+00
(PID.TID 0000.0001) // SYMBOLS (CMIN->CMAX): -abcdefghijklmnopqrstuvwxyz+
(PID.TID 0000.0001) //                  0.0: .
(PID.TID 0000.0001) // RANGE I (Lo:Hi:Step):(  -1:   7:   1)
(PID.TID 0000.0001) // RANGE J (Lo:Hi:Step):(   7:  -1:  -1)
(PID.TID 0000.0001) // RANGE K (Lo:Hi:Step):(   1:   1:   1)
(PID.TID 0000.0001) // =======================================================
(PID.TID 0000.0001) // =======================================================
(PID.TID 0000.0001) // END OF FIELD                                          =
(PID.TID 0000.0001) // =======================================================
(PID.TID 0000.0001) 
(PID.TID 0000.0001) %MON surfExpanfCori_max           =  -1.0735540000000E-04
(PID.TID 0000.0001) %MON surfExpanfCori_min           =  -1.1783060000000E-04
(PID.TID 0000.0001) %MON surfExpanfCori_mean          =  -1.1259300000000E-04
(PID.TID 0000.0001) %MON surfExpanfCori_sd            =   3.7035424771427E-06
(PID.TID 0000.0001) %MON surfExpanfCoriG_max          =  -1.0866480000000E-04
(PID.TID 0000.0001) %MON surfExpanfCoriG_min          =  -1.1914000000000E-04
(PID.TID 0000.0001) %MON surfExpanfCoriG_mean         =  -1.1390240000000E-04
(PID.TID 0000.0001) %MON surfExpanfCoriG_sd           =   3.7035424771427E-06
(PID.TID 0000.0001) %MON surfExpanfCoriCos_max        =   0.0000000000000E+00
(PID.TID 0000.0001) %MON surfExpanfCoriCos_min        =   0.0000000000000E+00
(PID.TID 0000.0001) %MON surfExpanfCoriCos_mean       =   0.0000000000000E+00
(PID.TID 0000.0001) %MON surfExpanfCoriCos_sd         =   0.0000000000000E+00
(PID.TID 0000.0001) INI_CG2D: CG2D normalisation factor =  1.9999999999999996E-04
(PID.TID 0000.0001) 
                     ctrl_depth_ini: ctrl update R_low,
                                     adding the control vector.
(PID.TID 0000.0001)  MDSREADFIELD: opening file: xx_depth.0000000000.001.001.data
(PID.TID 0000.0001) // =======================================================
(PID.TID 0000.0001) // Field Model Ro_surf (update_masks_etc) at iteration          1
(PID.TID 0000.0001) // CMIN =          2.273736754432321E-13
(PID.TID 0000.0001) // CMAX =          2.273736754432321E-13
(PID.TID 0000.0001) // CINT =          0.000000000000000E+00
(PID.TID 0000.0001) // SYMBOLS (CMIN->CMAX): -abcdefghijklmnopqrstuvwxyz+
(PID.TID 0000.0001) //                  0.0: .
(PID.TID 0000.0001) // RANGE I (Lo:Hi:Step):(  -1:   7:   1)
(PID.TID 0000.0001) // RANGE J (Lo:Hi:Step):(   7:  -1:  -1)
(PID.TID 0000.0001) // RANGE K (Lo:Hi:Step):(   1:   1:   1)
(PID.TID 0000.0001) // =======================================================
(PID.TID 0000.0001) // =======================================================
(PID.TID 0000.0001) // END OF FIELD                                          =
(PID.TID 0000.0001) // =======================================================
(PID.TID 0000.0001) 
(PID.TID 0000.0001) // =======================================================
(PID.TID 0000.0001) // Field hFacC at iteration          1
(PID.TID 0000.0001) // CMIN =          1.000000000000000E+00
(PID.TID 0000.0001) // CMAX =          1.000000000000000E+00
(PID.TID 0000.0001) // CINT =          0.000000000000000E+00
(PID.TID 0000.0001) // SYMBOLS (CMIN->CMAX): -abcdefghijklmnopqrstuvwxyz+
(PID.TID 0000.0001) //                  0.0: .
(PID.TID 0000.0001) // RANGE I (Lo:Hi:Step):(  -1:   7:   1)
(PID.TID 0000.0001) // RANGE J (Lo:Hi:Step):(   7:  -1:  -1)
(PID.TID 0000.0001) // RANGE K (Lo:Hi:Step):(   1:   1:   1)
(PID.TID 0000.0001) // =======================================================
(PID.TID 0000.0001) // =======================================================
(PID.TID 0000.0001) // END OF FIELD                                          =
(PID.TID 0000.0001) // =======================================================
(PID.TID 0000.0001) 
(PID.TID 0000.0001) // =======================================================
(PID.TID 0000.0001) // Field hFacW at iteration          1
(PID.TID 0000.0001) // CMIN =          1.000000000000000E+00
(PID.TID 0000.0001) // CMAX =          1.000000000000000E+00
(PID.TID 0000.0001) // CINT =          0.000000000000000E+00
(PID.TID 0000.0001) // SYMBOLS (CMIN->CMAX): -abcdefghijklmnopqrstuvwxyz+
(PID.TID 0000.0001) //                  0.0: .
(PID.TID 0000.0001) // RANGE I (Lo:Hi:Step):(  -1:   7:   1)
(PID.TID 0000.0001) // RANGE J (Lo:Hi:Step):(   7:  -1:  -1)
(PID.TID 0000.0001) // RANGE K (Lo:Hi:Step):(   1:   1:   1)
(PID.TID 0000.0001) // =======================================================
(PID.TID 0000.0001) // =======================================================
(PID.TID 0000.0001) // END OF FIELD                                          =
(PID.TID 0000.0001) // =======================================================
(PID.TID 0000.0001) 
(PID.TID 0000.0001) // =======================================================
(PID.TID 0000.0001) // Field hFacS at iteration          1
(PID.TID 0000.0001) // CMIN =          1.000000000000000E+00
(PID.TID 0000.0001) // CMAX =          1.000000000000000E+00
(PID.TID 0000.0001) // CINT =          0.000000000000000E+00
(PID.TID 0000.0001) // SYMBOLS (CMIN->CMAX): -abcdefghijklmnopqrstuvwxyz+
(PID.TID 0000.0001) //                  0.0: .
(PID.TID 0000.0001) // RANGE I (Lo:Hi:Step):(  -1:   7:   1)
(PID.TID 0000.0001) // RANGE J (Lo:Hi:Step):(   7:  -1:  -1)
(PID.TID 0000.0001) // RANGE K (Lo:Hi:Step):(   1:   1:   1)
(PID.TID 0000.0001) // =======================================================
(PID.TID 0000.0001) // =======================================================
(PID.TID 0000.0001) // END OF FIELD                                          =
(PID.TID 0000.0001) // =======================================================
(PID.TID 0000.0001) 
(PID.TID 0000.0001) // =======================================================
(PID.TID 0000.0001) // Field Initial Temperature at iteration          1
(PID.TID 0000.0001) // CMIN =          4.000000000000000E+00
(PID.TID 0000.0001) // CMAX =          4.000000000000000E+00
(PID.TID 0000.0001) // CINT =          0.000000000000000E+00
(PID.TID 0000.0001) // SYMBOLS (CMIN->CMAX): -abcdefghijklmnopqrstuvwxyz+
(PID.TID 0000.0001) //                  0.0: .
(PID.TID 0000.0001) // RANGE I (Lo:Hi:Step):(   1:   5:   1)
(PID.TID 0000.0001) // RANGE J (Lo:Hi:Step):(   5:   1:  -1)
(PID.TID 0000.0001) // RANGE K (Lo:Hi:Step):(   1:   1:   1)
(PID.TID 0000.0001) // =======================================================
(PID.TID 0000.0001) // =======================================================
(PID.TID 0000.0001) // END OF FIELD                                          =
(PID.TID 0000.0001) // =======================================================
(PID.TID 0000.0001) 
(PID.TID 0000.0001) // =======================================================
(PID.TID 0000.0001) // Field Initial Salinity at iteration          1
(PID.TID 0000.0001) // CMIN =          3.500000000000000E+01
(PID.TID 0000.0001) // CMAX =          3.500000000000000E+01
(PID.TID 0000.0001) // CINT =          0.000000000000000E+00
(PID.TID 0000.0001) // SYMBOLS (CMIN->CMAX): -abcdefghijklmnopqrstuvwxyz+
(PID.TID 0000.0001) //                  0.0: .
(PID.TID 0000.0001) // RANGE I (Lo:Hi:Step):(   1:   5:   1)
(PID.TID 0000.0001) // RANGE J (Lo:Hi:Step):(   5:   1:  -1)
(PID.TID 0000.0001) // RANGE K (Lo:Hi:Step):(   1:   1:   1)
(PID.TID 0000.0001) // =======================================================
(PID.TID 0000.0001) // =======================================================
(PID.TID 0000.0001) // END OF FIELD                                          =
(PID.TID 0000.0001) // =======================================================
(PID.TID 0000.0001) 
(PID.TID 0000.0001) Start initial hydrostatic pressure computation
(PID.TID 0000.0001) Pressure is predetermined for buoyancyRelation OCEANIC
(PID.TID 0000.0001) 
(PID.TID 0000.0001)  MDSREADFIELD: opening global file: windx.sin_y
(PID.TID 0000.0001) // =======================================================
(PID.TID 0000.0001) // Model current state
(PID.TID 0000.0001) // =======================================================
(PID.TID 0000.0001) 
 cg2d: Sum(rhs),rhsMax =   0.00000000000000E+00  0.00000000000000E+00
 cg2d: Sum(rhs),rhsMax =   4.68375338513738E-16  2.62483626325265E-03
 cg2d: Sum(rhs),rhsMax =   9.71445146547012E-17  5.13362633362719E-03
 cg2d: Sum(rhs),rhsMax =   3.22658566531686E-16  7.16168459666097E-03
 cg2d: Sum(rhs),rhsMax =   8.67361737988404E-17  9.29466756621381E-03
 cg2d: Sum(rhs),rhsMax =  -2.08166817117217E-17  1.15304356856737E-02
 cg2d: Sum(rhs),rhsMax =   2.69749500514394E-16  1.37809802381508E-02
 cg2d: Sum(rhs),rhsMax =  -2.63677968348475E-16  1.60011247438696E-02
 cg2d: Sum(rhs),rhsMax =  -6.80011602582908E-16  1.82027337834784E-02
 cg2d: Sum(rhs),rhsMax =  -7.35522753814166E-16  2.04493560773489E-02
 cg2d: Sum(rhs),rhsMax =  -8.88178419700125E-16  2.25706027617147E-02
 cg2d: Sum(rhs),rhsMax =  -2.63677968348475E-16  2.45301657011627E-02
 cg2d: Sum(rhs),rhsMax =  -4.16333634234434E-17  2.63097944189883E-02
 cg2d: Sum(rhs),rhsMax =  -4.85722573273506E-16  2.79110496989400E-02
 cg2d: Sum(rhs),rhsMax =  -3.60822483003176E-16  2.93538602103367E-02
 cg2d: Sum(rhs),rhsMax =   1.87350135405495E-16  3.06720438765136E-02
 cg2d: Sum(rhs),rhsMax =  -8.53483950180589E-16  3.19067816189640E-02
 cg2d: Sum(rhs),rhsMax =  -1.23512311489549E-15  3.30992667128713E-02
 cg2d: Sum(rhs),rhsMax =  -1.34614541735800E-15  3.42837432228142E-02
 cg2d: Sum(rhs),rhsMax =  -1.34614541735800E-15  3.54819650052686E-02
 cg2d: Sum(rhs),rhsMax =  -6.31439345255558E-16  3.66998057600338E-02
 cg2d: Sum(rhs),rhsMax =  -9.99200722162641E-16  3.79264044506660E-02
 cg2d: Sum(rhs),rhsMax =  -2.42861286636753E-16  3.91358857241417E-02
 cg2d: Sum(rhs),rhsMax =  -4.71844785465692E-16  4.02913637956747E-02
 cg2d: Sum(rhs),rhsMax =  -1.34614541735800E-15  4.13506293199206E-02
 cg2d: Sum(rhs),rhsMax =  -1.31838984174237E-15  4.22726605040481E-02
 cg2d: Sum(rhs),rhsMax =  -1.02695629777827E-15  4.30239433440141E-02
 cg2d: Sum(rhs),rhsMax =  -7.35522753814166E-16  4.35835860249680E-02
 cg2d: Sum(rhs),rhsMax =  -6.52256026967279E-16  4.39463976338439E-02
 cg2d: Sum(rhs),rhsMax =  -1.16573417585641E-15  4.41234512270199E-02
 cg2d: Sum(rhs),rhsMax =  -8.04911692853238E-16  4.41400959662881E-02
 cg2d: Sum(rhs),rhsMax =  -1.09634523681734E-15  4.40318238503387E-02
 cg2d: Sum(rhs),rhsMax =  -1.87350135405495E-15  4.38387394382100E-02
 cg2d: Sum(rhs),rhsMax =  -2.13717932240343E-15  4.54379565751417E-02
 cg2d: Sum(rhs),rhsMax =  -2.27595720048157E-15  4.77259347179413E-02
 cg2d: Sum(rhs),rhsMax =  -2.58126853225349E-15  4.99949948780748E-02
 cg2d: Sum(rhs),rhsMax =  -3.13638004456607E-15  5.22073352443603E-02
 cg2d: Sum(rhs),rhsMax =  -2.56739074444567E-15  5.43317161414743E-02
 cg2d: Sum(rhs),rhsMax =  -2.56739074444567E-15  5.63476440932527E-02
 cg2d: Sum(rhs),rhsMax =  -1.97064586870965E-15  5.82478254340655E-02
 cg2d: Sum(rhs),rhsMax =  -1.27675647831893E-15  6.00385234480418E-02
 cg2d: Sum(rhs),rhsMax =  -1.08246744900953E-15  6.17377936368116E-02
 cg2d: Sum(rhs),rhsMax =  -1.05471187339390E-15  6.33719190282856E-02
 cg2d: Sum(rhs),rhsMax =  -1.16573417585641E-15  6.49706569227288E-02
 cg2d: Sum(rhs),rhsMax =  -1.52655665885959E-15  6.65620862798336E-02
 cg2d: Sum(rhs),rhsMax =  -1.47104550762833E-15  6.81678820119630E-02
 cg2d: Sum(rhs),rhsMax =  -1.27675647831893E-15  6.97997404339091E-02
 cg2d: Sum(rhs),rhsMax =  -1.27675647831893E-15  7.14574675791705E-02
 cg2d: Sum(rhs),rhsMax =  -1.88737914186277E-15  7.31289636449647E-02
 cg2d: Sum(rhs),rhsMax =  -1.63757896132211E-15  7.47920408238954E-02
 cg2d: Sum(rhs),rhsMax =  -9.99200722162641E-16  7.64177412657694E-02
 cg2d: Sum(rhs),rhsMax =  -4.16333634234434E-16  7.79746107025023E-02
 cg2d: Sum(rhs),rhsMax =   1.11022302462516E-16  7.94332556746046E-02
 cg2d: Sum(rhs),rhsMax =   5.55111512312578E-17  8.07704835099799E-02
 cg2d: Sum(rhs),rhsMax =   5.27355936696949E-16  8.19723990892305E-02
 cg2d: Sum(rhs),rhsMax =   7.49400541621981E-16  8.30360027403879E-02
 cg2d: Sum(rhs),rhsMax =   7.77156117237610E-16  8.39690757131735E-02
 cg2d: Sum(rhs),rhsMax =   6.24500451351651E-16  8.47884155366067E-02
 cg2d: Sum(rhs),rhsMax =   1.12410081243297E-15  8.55167463689053E-02
 cg2d: Sum(rhs),rhsMax =   1.05471187339390E-15  8.61788332441349E-02
 cg2d: Sum(rhs),rhsMax =   8.18789480661053E-16  8.67974392835917E-02
 cg2d: Sum(rhs),rhsMax =   5.82867087928207E-16  8.73897659116970E-02
 cg2d: Sum(rhs),rhsMax =   4.16333634234434E-17  8.79649137174861E-02
 cg2d: Sum(rhs),rhsMax =  -1.24900090270330E-16  8.85227196290421E-02
 cg2d: Sum(rhs),rhsMax =  -6.93889390390723E-16  8.90540991164175E-02
 cg2d: Sum(rhs),rhsMax =  -4.02455846426619E-16  8.95427876920657E-02
 cg2d: Sum(rhs),rhsMax =  -5.55111512312578E-16  8.99681682373314E-02
 cg2d: Sum(rhs),rhsMax =  -4.30211422042248E-16  9.03087170406106E-02
 cg2d: Sum(rhs),rhsMax =  -2.42861286636753E-16  9.05455209126899E-02
 cg2d: Sum(rhs),rhsMax =  -3.40005801291454E-16  9.06653200950396E-02
 cg2d: Sum(rhs),rhsMax =  -1.66533453693773E-16  9.06626162509911E-02
 cg2d: Sum(rhs),rhsMax =  -3.60822483003176E-16  9.05405395140170E-02
 cg2d: Sum(rhs),rhsMax =  -4.40619762898109E-16  9.03103698914156E-02
 cg2d: Sum(rhs),rhsMax =  -4.71844785465692E-16  8.99898239560688E-02
 cg2d: Sum(rhs),rhsMax =  -7.80625564189563E-17  8.96004117441467E-02
 cg2d: Sum(rhs),rhsMax =  -2.41993924898765E-16  8.91643085215826E-02
 cg2d: Sum(rhs),rhsMax =  -3.69496100383060E-16  8.87012491490358E-02
 cg2d: Sum(rhs),rhsMax =  -2.49800180540660E-16  8.82259313210282E-02
 cg2d: Sum(rhs),rhsMax =  -2.15105711021124E-16  8.77463155284677E-02
 cg2d: Sum(rhs),rhsMax =  -4.30211422042248E-16  8.72630543623982E-02
 cg2d: Sum(rhs),rhsMax =  -2.11636264069170E-16  8.67700994767865E-02
 cg2d: Sum(rhs),rhsMax =  -3.01841884819964E-16  8.62563509173572E-02
 cg2d: Sum(rhs),rhsMax =  -4.97865637605344E-16  8.57080577554462E-02
 cg2d: Sum(rhs),rhsMax =  -5.15212872365112E-16  8.51115724451602E-02
 cg2d: Sum(rhs),rhsMax =  -7.25114412958305E-16  8.44560178173222E-02
 cg2d: Sum(rhs),rhsMax =  -8.67361737988404E-16  8.37354501242976E-02
 cg2d: Sum(rhs),rhsMax =  -1.19002030452009E-15  8.29501896100543E-02
 cg2d: Sum(rhs),rhsMax =  -1.03779831950312E-15  8.21071278892055E-02
 cg2d: Sum(rhs),rhsMax =  -1.14578485588268E-15  8.12189871477768E-02
 cg2d: Sum(rhs),rhsMax =  -1.37476835471162E-15  8.03026729982944E-02
 cg2d: Sum(rhs),rhsMax =  -7.59808882477842E-16  7.93770034028622E-02
 cg2d: Sum(rhs),rhsMax =  -1.15706055847653E-15  7.84601876725367E-02
 cg2d: Sum(rhs),rhsMax =  -1.60461921527855E-15  7.75674583333688E-02
 cg2d: Sum(rhs),rhsMax =  -9.67975699595058E-16  7.67092221073406E-02
 cg2d: Sum(rhs),rhsMax =  -1.20736753927986E-15  7.58900030604524E-02
 cg2d: Sum(rhs),rhsMax =  -1.00267016911459E-15  7.51083185750575E-02
 cg2d: Sum(rhs),rhsMax =  -9.02056207507940E-16  7.43574796864892E-02
 cg2d: Sum(rhs),rhsMax =  -3.26128013483640E-16  7.36271649592513E-02
 cg2d: Sum(rhs),rhsMax =   6.24500451351651E-17  7.29055024706104E-02
 cg2d: Sum(rhs),rhsMax =  -4.23272528138341E-16  7.21813236025891E-02
 --> objf_test(bi,bj)   = -0.849803599860746E+00
 --> objf_tracer(bi,bj) =  0.000000000000000E+00
 --> objf_atl(bi,bj)    =  0.000000000000000E+00
  local fc = -0.849803599860746E+00
 global fc = -0.849803599860746E+00
(PID.TID 0000.0001)  MDSREADFIELD: opening file: xx_depth.0000000000.001.001.data
 grad-res -------------------------------
 grad-res     0    6    1    3    1   -.849803598E+00 -.849803596E+00 -.849803600E+00
 grad-res     0    6    6    6   20   0.191670245E-04 0.191683958E-04 -.715415155E-04
(PID.TID 0000.0001)       precision_grdchk_result ADM    -8.49803597943908E-01     1.91670245215685E-05
 ph-grd  ierr ---------------------------
 ph-grd  ierr =  0, icomp =  6, ichknum =  6
(PID.TID 0000.0001)  MDSREADFIELD: opening file: adxx_depth.0000000000.001.001.data
(PID.TID 0000.0001)  MDSREADFIELD: opening file: xx_depth.0000000000.001.001.data
(PID.TID 0000.0001)  MDSREADFIELD: opening global file: walls.bigRidge
(PID.TID 0000.0001) // =======================================================
(PID.TID 0000.0001) // Field Bottom depths (ini_depths) at iteration          1
(PID.TID 0000.0001) // CMIN =         -5.000000000000000E+03
(PID.TID 0000.0001) // CMAX =         -2.000000000000000E+03
(PID.TID 0000.0001) // CINT =          1.111111111111111E+02
(PID.TID 0000.0001) // SYMBOLS (CMIN->CMAX): -abcdefghijklmnopqrstuvwxyz+
(PID.TID 0000.0001) //                  0.0: .
(PID.TID 0000.0001) // RANGE I (Lo:Hi:Step):(  -1:   7:   1)
(PID.TID 0000.0001) // RANGE J (Lo:Hi:Step):(   7:  -1:  -1)
(PID.TID 0000.0001) // RANGE K (Lo:Hi:Step):(   1:   1:   1)
(PID.TID 0000.0001) // =======================================================
(PID.TID 0000.0001) K =   1
(PID.TID 0000.0001) //
(PID.TID 0000.0001) // |--J--|*01234567
(PID.TID 0000.0001) //      7 ----+----
(PID.TID 0000.0001) //      6 .........
(PID.TID 0000.0001) //      5 ----+----
(PID.TID 0000.0001) //      4 ----+----
(PID.TID 0000.0001) //      3 ----+----
(PID.TID 0000.0001) //      2 ----+----
(PID.TID 0000.0001) //      1 .........
(PID.TID 0000.0001) //      0 ----+----
(PID.TID 0000.0001) //     -1 ----+----
(PID.TID 0000.0001) // =======================================================
(PID.TID 0000.0001) // END OF FIELD                                          =
(PID.TID 0000.0001) // =======================================================
(PID.TID 0000.0001) 
(PID.TID 0000.0001) // =======================================================
(PID.TID 0000.0001) // Field Model R_low (ini_masks_etc) at iteration          1
(PID.TID 0000.0001) // CMIN =         -5.000000000000000E+03
(PID.TID 0000.0001) // CMAX =         -2.000000000000000E+03
(PID.TID 0000.0001) // CINT =          1.111111111111111E+02
(PID.TID 0000.0001) // SYMBOLS (CMIN->CMAX): -abcdefghijklmnopqrstuvwxyz+
(PID.TID 0000.0001) //                  0.0: .
(PID.TID 0000.0001) // RANGE I (Lo:Hi:Step):(  -1:   7:   1)
(PID.TID 0000.0001) // RANGE J (Lo:Hi:Step):(   7:  -1:  -1)
(PID.TID 0000.0001) // RANGE K (Lo:Hi:Step):(   1:   1:   1)
(PID.TID 0000.0001) // =======================================================
(PID.TID 0000.0001) K =   1
(PID.TID 0000.0001) //
(PID.TID 0000.0001) // |--J--|*01234567
(PID.TID 0000.0001) //      7 ----+----
(PID.TID 0000.0001) //      6 .........
(PID.TID 0000.0001) //      5 ----+----
(PID.TID 0000.0001) //      4 ----+----
(PID.TID 0000.0001) //      3 ----+----
(PID.TID 0000.0001) //      2 ----+----
(PID.TID 0000.0001) //      1 .........
(PID.TID 0000.0001) //      0 ----+----
(PID.TID 0000.0001) //     -1 ----+----
(PID.TID 0000.0001) // =======================================================
(PID.TID 0000.0001) // END OF FIELD                                          =
(PID.TID 0000.0001) // =======================================================
(PID.TID 0000.0001) 
(PID.TID 0000.0001) // =======================================================
(PID.TID 0000.0001) // Field Model Ro_surf (ini_masks_etc) at iteration          1
(PID.TID 0000.0001) // CMIN =          2.273736754432321E-13
(PID.TID 0000.0001) // CMAX =          2.273736754432321E-13
(PID.TID 0000.0001) // CINT =          0.000000000000000E+00
(PID.TID 0000.0001) // SYMBOLS (CMIN->CMAX): -abcdefghijklmnopqrstuvwxyz+
(PID.TID 0000.0001) //                  0.0: .
(PID.TID 0000.0001) // RANGE I (Lo:Hi:Step):(  -1:   7:   1)
(PID.TID 0000.0001) // RANGE J (Lo:Hi:Step):(   7:  -1:  -1)
(PID.TID 0000.0001) // RANGE K (Lo:Hi:Step):(   1:   1:   1)
(PID.TID 0000.0001) // =======================================================
(PID.TID 0000.0001) // =======================================================
(PID.TID 0000.0001) // END OF FIELD                                          =
(PID.TID 0000.0001) // =======================================================
(PID.TID 0000.0001) 
(PID.TID 0000.0001) // =======================================================
(PID.TID 0000.0001) // Field hFacC at iteration          1
(PID.TID 0000.0001) // CMIN =          1.000000000000000E+00
(PID.TID 0000.0001) // CMAX =          1.000000000000000E+00
(PID.TID 0000.0001) // CINT =          0.000000000000000E+00
(PID.TID 0000.0001) // SYMBOLS (CMIN->CMAX): -abcdefghijklmnopqrstuvwxyz+
(PID.TID 0000.0001) //                  0.0: .
(PID.TID 0000.0001) // RANGE I (Lo:Hi:Step):(  -1:   7:   1)
(PID.TID 0000.0001) // RANGE J (Lo:Hi:Step):(   7:  -1:  -1)
(PID.TID 0000.0001) // RANGE K (Lo:Hi:Step):(   1:   1:   1)
(PID.TID 0000.0001) // =======================================================
(PID.TID 0000.0001) // =======================================================
(PID.TID 0000.0001) // END OF FIELD                                          =
(PID.TID 0000.0001) // =======================================================
(PID.TID 0000.0001) 
(PID.TID 0000.0001) // =======================================================
(PID.TID 0000.0001) // Field hFacW at iteration          1
(PID.TID 0000.0001) // CMIN =          1.000000000000000E+00
(PID.TID 0000.0001) // CMAX =          1.000000000000000E+00
(PID.TID 0000.0001) // CINT =          0.000000000000000E+00
(PID.TID 0000.0001) // SYMBOLS (CMIN->CMAX): -abcdefghijklmnopqrstuvwxyz+
(PID.TID 0000.0001) //                  0.0: .
(PID.TID 0000.0001) // RANGE I (Lo:Hi:Step):(  -1:   7:   1)
(PID.TID 0000.0001) // RANGE J (Lo:Hi:Step):(   7:  -1:  -1)
(PID.TID 0000.0001) // RANGE K (Lo:Hi:Step):(   1:   1:   1)
(PID.TID 0000.0001) // =======================================================
(PID.TID 0000.0001) // =======================================================
(PID.TID 0000.0001) // END OF FIELD                                          =
(PID.TID 0000.0001) // =======================================================
(PID.TID 0000.0001) 
(PID.TID 0000.0001) // =======================================================
(PID.TID 0000.0001) // Field hFacS at iteration          1
(PID.TID 0000.0001) // CMIN =          1.000000000000000E+00
(PID.TID 0000.0001) // CMAX =          1.000000000000000E+00
(PID.TID 0000.0001) // CINT =          0.000000000000000E+00
(PID.TID 0000.0001) // SYMBOLS (CMIN->CMAX): -abcdefghijklmnopqrstuvwxyz+
(PID.TID 0000.0001) //                  0.0: .
(PID.TID 0000.0001) // RANGE I (Lo:Hi:Step):(  -1:   7:   1)
(PID.TID 0000.0001) // RANGE J (Lo:Hi:Step):(   7:  -1:  -1)
(PID.TID 0000.0001) // RANGE K (Lo:Hi:Step):(   1:   1:   1)
(PID.TID 0000.0001) // =======================================================
(PID.TID 0000.0001) // =======================================================
(PID.TID 0000.0001) // END OF FIELD                                          =
(PID.TID 0000.0001) // =======================================================
(PID.TID 0000.0001) 
(PID.TID 0000.0001) %MON surfExpanfCori_max           =  -1.0735540000000E-04
(PID.TID 0000.0001) %MON surfExpanfCori_min           =  -1.1783060000000E-04
(PID.TID 0000.0001) %MON surfExpanfCori_mean          =  -1.1259300000000E-04
(PID.TID 0000.0001) %MON surfExpanfCori_sd            =   3.7035424771427E-06
(PID.TID 0000.0001) %MON surfExpanfCoriG_max          =  -1.0866480000000E-04
(PID.TID 0000.0001) %MON surfExpanfCoriG_min          =  -1.1914000000000E-04
(PID.TID 0000.0001) %MON surfExpanfCoriG_mean         =  -1.1390240000000E-04
(PID.TID 0000.0001) %MON surfExpanfCoriG_sd           =   3.7035424771427E-06
(PID.TID 0000.0001) %MON surfExpanfCoriCos_max        =   0.0000000000000E+00
(PID.TID 0000.0001) %MON surfExpanfCoriCos_min        =   0.0000000000000E+00
(PID.TID 0000.0001) %MON surfExpanfCoriCos_mean       =   0.0000000000000E+00
(PID.TID 0000.0001) %MON surfExpanfCoriCos_sd         =   0.0000000000000E+00
(PID.TID 0000.0001) INI_CG2D: CG2D normalisation factor =  1.9999999999999996E-04
(PID.TID 0000.0001) 
                     ctrl_depth_ini: ctrl update R_low,
                                     adding the control vector.
(PID.TID 0000.0001)  MDSREADFIELD: opening file: xx_depth.0000000000.001.001.data
(PID.TID 0000.0001) // =======================================================
(PID.TID 0000.0001) // Field Model Ro_surf (update_masks_etc) at iteration          1
(PID.TID 0000.0001) // CMIN =          2.273736754432321E-13
(PID.TID 0000.0001) // CMAX =          2.273736754432321E-13
(PID.TID 0000.0001) // CINT =          0.000000000000000E+00
(PID.TID 0000.0001) // SYMBOLS (CMIN->CMAX): -abcdefghijklmnopqrstuvwxyz+
(PID.TID 0000.0001) //                  0.0: .
(PID.TID 0000.0001) // RANGE I (Lo:Hi:Step):(  -1:   7:   1)
(PID.TID 0000.0001) // RANGE J (Lo:Hi:Step):(   7:  -1:  -1)
(PID.TID 0000.0001) // RANGE K (Lo:Hi:Step):(   1:   1:   1)
(PID.TID 0000.0001) // =======================================================
(PID.TID 0000.0001) // =======================================================
(PID.TID 0000.0001) // END OF FIELD                                          =
(PID.TID 0000.0001) // =======================================================
(PID.TID 0000.0001) 
(PID.TID 0000.0001) // =======================================================
(PID.TID 0000.0001) // Field hFacC at iteration          1
(PID.TID 0000.0001) // CMIN =          1.000000000000000E+00
(PID.TID 0000.0001) // CMAX =          1.000000000000000E+00
(PID.TID 0000.0001) // CINT =          0.000000000000000E+00
(PID.TID 0000.0001) // SYMBOLS (CMIN->CMAX): -abcdefghijklmnopqrstuvwxyz+
(PID.TID 0000.0001) //                  0.0: .
(PID.TID 0000.0001) // RANGE I (Lo:Hi:Step):(  -1:   7:   1)
(PID.TID 0000.0001) // RANGE J (Lo:Hi:Step):(   7:  -1:  -1)
(PID.TID 0000.0001) // RANGE K (Lo:Hi:Step):(   1:   1:   1)
(PID.TID 0000.0001) // =======================================================
(PID.TID 0000.0001) // =======================================================
(PID.TID 0000.0001) // END OF FIELD                                          =
(PID.TID 0000.0001) // =======================================================
(PID.TID 0000.0001) 
(PID.TID 0000.0001) // =======================================================
(PID.TID 0000.0001) // Field hFacW at iteration          1
(PID.TID 0000.0001) // CMIN =          1.000000000000000E+00
(PID.TID 0000.0001) // CMAX =          1.000000000000000E+00
(PID.TID 0000.0001) // CINT =          0.000000000000000E+00
(PID.TID 0000.0001) // SYMBOLS (CMIN->CMAX): -abcdefghijklmnopqrstuvwxyz+
(PID.TID 0000.0001) //                  0.0: .
(PID.TID 0000.0001) // RANGE I (Lo:Hi:Step):(  -1:   7:   1)
(PID.TID 0000.0001) // RANGE J (Lo:Hi:Step):(   7:  -1:  -1)
(PID.TID 0000.0001) // RANGE K (Lo:Hi:Step):(   1:   1:   1)
(PID.TID 0000.0001) // =======================================================
(PID.TID 0000.0001) // =======================================================
(PID.TID 0000.0001) // END OF FIELD                                          =
(PID.TID 0000.0001) // =======================================================
(PID.TID 0000.0001) 
(PID.TID 0000.0001) // =======================================================
(PID.TID 0000.0001) // Field hFacS at iteration          1
(PID.TID 0000.0001) // CMIN =          1.000000000000000E+00
(PID.TID 0000.0001) // CMAX =          1.000000000000000E+00
(PID.TID 0000.0001) // CINT =          0.000000000000000E+00
(PID.TID 0000.0001) // SYMBOLS (CMIN->CMAX): -abcdefghijklmnopqrstuvwxyz+
(PID.TID 0000.0001) //                  0.0: .
(PID.TID 0000.0001) // RANGE I (Lo:Hi:Step):(  -1:   7:   1)
(PID.TID 0000.0001) // RANGE J (Lo:Hi:Step):(   7:  -1:  -1)
(PID.TID 0000.0001) // RANGE K (Lo:Hi:Step):(   1:   1:   1)
(PID.TID 0000.0001) // =======================================================
(PID.TID 0000.0001) // =======================================================
(PID.TID 0000.0001) // END OF FIELD                                          =
(PID.TID 0000.0001) // =======================================================
(PID.TID 0000.0001) 
(PID.TID 0000.0001) // =======================================================
(PID.TID 0000.0001) // Field Initial Temperature at iteration          1
(PID.TID 0000.0001) // CMIN =          4.000000000000000E+00
(PID.TID 0000.0001) // CMAX =          4.000000000000000E+00
(PID.TID 0000.0001) // CINT =          0.000000000000000E+00
(PID.TID 0000.0001) // SYMBOLS (CMIN->CMAX): -abcdefghijklmnopqrstuvwxyz+
(PID.TID 0000.0001) //                  0.0: .
(PID.TID 0000.0001) // RANGE I (Lo:Hi:Step):(   1:   5:   1)
(PID.TID 0000.0001) // RANGE J (Lo:Hi:Step):(   5:   1:  -1)
(PID.TID 0000.0001) // RANGE K (Lo:Hi:Step):(   1:   1:   1)
(PID.TID 0000.0001) // =======================================================
(PID.TID 0000.0001) // =======================================================
(PID.TID 0000.0001) // END OF FIELD                                          =
(PID.TID 0000.0001) // =======================================================
(PID.TID 0000.0001) 
(PID.TID 0000.0001) // =======================================================
(PID.TID 0000.0001) // Field Initial Salinity at iteration          1
(PID.TID 0000.0001) // CMIN =          3.500000000000000E+01
(PID.TID 0000.0001) // CMAX =          3.500000000000000E+01
(PID.TID 0000.0001) // CINT =          0.000000000000000E+00
(PID.TID 0000.0001) // SYMBOLS (CMIN->CMAX): -abcdefghijklmnopqrstuvwxyz+
(PID.TID 0000.0001) //                  0.0: .
(PID.TID 0000.0001) // RANGE I (Lo:Hi:Step):(   1:   5:   1)
(PID.TID 0000.0001) // RANGE J (Lo:Hi:Step):(   5:   1:  -1)
(PID.TID 0000.0001) // RANGE K (Lo:Hi:Step):(   1:   1:   1)
(PID.TID 0000.0001) // =======================================================
(PID.TID 0000.0001) // =======================================================
(PID.TID 0000.0001) // END OF FIELD                                          =
(PID.TID 0000.0001) // =======================================================
(PID.TID 0000.0001) 
(PID.TID 0000.0001) Start initial hydrostatic pressure computation
(PID.TID 0000.0001) Pressure is predetermined for buoyancyRelation OCEANIC
(PID.TID 0000.0001) 
(PID.TID 0000.0001)  MDSREADFIELD: opening global file: windx.sin_y
(PID.TID 0000.0001) // =======================================================
(PID.TID 0000.0001) // Model current state
(PID.TID 0000.0001) // =======================================================
(PID.TID 0000.0001) 
 cg2d: Sum(rhs),rhsMax =   0.00000000000000E+00  0.00000000000000E+00
 cg2d: Sum(rhs),rhsMax =   4.68375338513738E-16  2.62483626325265E-03
 cg2d: Sum(rhs),rhsMax =   5.27355936696949E-16  5.13362635791025E-03
 cg2d: Sum(rhs),rhsMax =   2.05131051034257E-16  7.16168463339898E-03
 cg2d: Sum(rhs),rhsMax =   2.29850860566927E-16  9.29466760664766E-03
 cg2d: Sum(rhs),rhsMax =  -3.19189119579733E-16  1.15304357294861E-02
 cg2d: Sum(rhs),rhsMax =  -6.86516815617821E-16  1.37809802848276E-02
 cg2d: Sum(rhs),rhsMax =  -4.61436444609831E-16  1.60011247930879E-02
 cg2d: Sum(rhs),rhsMax =   1.38777878078145E-16  1.82027337781837E-02
 cg2d: Sum(rhs),rhsMax =   7.63278329429795E-16  2.04493560708021E-02
 cg2d: Sum(rhs),rhsMax =   7.21644966006352E-16  2.25706027536927E-02
 cg2d: Sum(rhs),rhsMax =   8.32667268468867E-16  2.45301656913496E-02
 cg2d: Sum(rhs),rhsMax =   5.96744875736022E-16  2.63097944070159E-02
 cg2d: Sum(rhs),rhsMax =   1.05471187339390E-15  2.79110496844423E-02
 cg2d: Sum(rhs),rhsMax =   1.70696790036118E-15  2.93538601930084E-02
 cg2d: Sum(rhs),rhsMax =   2.44942954807925E-15  3.06720438561693E-02
 cg2d: Sum(rhs),rhsMax =   1.84574577843932E-15  3.19067815955864E-02
 cg2d: Sum(rhs),rhsMax =   1.82492909672760E-15  3.30992666866396E-02
 cg2d: Sum(rhs),rhsMax =   1.97758476261356E-15  3.42837431941103E-02
 cg2d: Sum(rhs),rhsMax =   1.72778458207290E-15  3.54819649746592E-02
 cg2d: Sum(rhs),rhsMax =   2.06779038336435E-15  3.66998057282324E-02
 cg2d: Sum(rhs),rhsMax =   2.24820162486594E-15  3.79264044184800E-02
 cg2d: Sum(rhs),rhsMax =   1.60982338570648E-15  3.91358856924155E-02
 cg2d: Sum(rhs),rhsMax =   1.34614541735800E-15  4.02913637652357E-02
 cg2d: Sum(rhs),rhsMax =   5.96744875736022E-16  4.13506292915370E-02
 cg2d: Sum(rhs),rhsMax =   5.55111512312578E-17  4.22726604784064E-02
 cg2d: Sum(rhs),rhsMax =   5.55111512312578E-17  4.30239433217175E-02
 cg2d: Sum(rhs),rhsMax =  -1.52655665885959E-16  4.35835860065564E-02
 cg2d: Sum(rhs),rhsMax =   2.91433543964104E-16  4.39463976198322E-02
 cg2d: Sum(rhs),rhsMax =   1.11022302462516E-16  4.41234512179475E-02
 cg2d: Sum(rhs),rhsMax =  -6.38378239159465E-16  4.41400959627732E-02
 cg2d: Sum(rhs),rhsMax =  -4.16333634234434E-16  4.40318238531269E-02
 cg2d: Sum(rhs),rhsMax =  -4.99600361081320E-16  4.38387394482117E-02
 cg2d: Sum(rhs),rhsMax =  -6.52256026967279E-16  4.54379568602298E-02
 cg2d: Sum(rhs),rhsMax =  -2.91433543964104E-16  4.77259350078611E-02
 cg2d: Sum(rhs),rhsMax =  -1.13797860024079E-15  4.99949951722666E-02
 cg2d: Sum(rhs),rhsMax =  -1.59594559789866E-15  5.22073355423689E-02
 cg2d: Sum(rhs),rhsMax =  -1.15185638804860E-15  5.43317164429145E-02
 cg2d: Sum(rhs),rhsMax =  -8.04911692853238E-16  5.63476443977636E-02
 cg2d: Sum(rhs),rhsMax =  -1.24900090270330E-15  5.82478257412607E-02
 cg2d: Sum(rhs),rhsMax =  -1.13797860024079E-15  6.00385237574635E-02
 cg2d: Sum(rhs),rhsMax =  -1.38777878078145E-15  6.17377939478967E-02
 cg2d: Sum(rhs),rhsMax =  -4.16333634234434E-16  6.33719193403481E-02
 cg2d: Sum(rhs),rhsMax =   0.00000000000000E+00  6.49706572349624E-02
 cg2d: Sum(rhs),rhsMax =   5.55111512312578E-17  6.65620865913324E-02
 cg2d: Sum(rhs),rhsMax =   3.60822483003176E-16  6.81678823217583E-02
 cg2d: Sum(rhs),rhsMax =   7.77156117237610E-16  6.97997407410159E-02
 cg2d: Sum(rhs),rhsMax =   8.60422844084496E-16  7.14574678826362E-02
 cg2d: Sum(rhs),rhsMax =   8.32667268468867E-16  7.31289639439133E-02
 cg2d: Sum(rhs),rhsMax =   8.60422844084496E-16  7.47920411175612E-02
 cg2d: Sum(rhs),rhsMax =   5.55111512312578E-16  7.64177415535146E-02
 cg2d: Sum(rhs),rhsMax =   6.66133814775094E-16  7.79746109838169E-02
 cg2d: Sum(rhs),rhsMax =   5.27355936696949E-16  7.94332559490914E-02
 cg2d: Sum(rhs),rhsMax =   3.05311331771918E-16  8.07704837773244E-02
 cg2d: Sum(rhs),rhsMax =   1.94289029309402E-16  8.19723993491642E-02
 cg2d: Sum(rhs),rhsMax =   4.71844785465692E-16  8.30360029926500E-02
 cg2d: Sum(rhs),rhsMax =   7.77156117237610E-16  8.39690759574777E-02
 cg2d: Sum(rhs),rhsMax =   5.27355936696949E-16  8.47884157726179E-02
 cg2d: Sum(rhs),rhsMax =   6.52256026967279E-16  8.55167465962313E-02
 cg2d: Sum(rhs),rhsMax =   5.55111512312578E-16  8.61788334623329E-02
 cg2d: Sum(rhs),rhsMax =   6.10622663543836E-16  8.67974394921894E-02
 cg2d: Sum(rhs),rhsMax =   4.71844785465692E-16  8.73897661102240E-02
 cg2d: Sum(rhs),rhsMax =   9.71445146547012E-17  8.79649139055114E-02
 cg2d: Sum(rhs),rhsMax =  -1.11022302462516E-16  8.85227198062114E-02
 cg2d: Sum(rhs),rhsMax =  -3.05311331771918E-16  8.90540992824842E-02
 cg2d: Sum(rhs),rhsMax =  -4.16333634234434E-17  8.95427878469119E-02
 cg2d: Sum(rhs),rhsMax =  -6.93889390390723E-17  8.99681683809743E-02
 cg2d: Sum(rhs),rhsMax =  -2.15105711021124E-16  9.03087171731952E-02
 cg2d: Sum(rhs),rhsMax =  -1.04083408558608E-16  9.05455210344682E-02
 cg2d: Sum(rhs),rhsMax =   1.31838984174237E-16  9.06653202063407E-02
 cg2d: Sum(rhs),rhsMax =   9.02056207507940E-17  9.06626163521854E-02
 cg2d: Sum(rhs),rhsMax =   4.92661467177413E-16  9.05405396054821E-02
 cg2d: Sum(rhs),rhsMax =   5.82867087928207E-16  9.03103699735064E-02
 cg2d: Sum(rhs),rhsMax =   6.59194920871187E-17  8.99898240290990E-02
 cg2d: Sum(rhs),rhsMax =   3.85108611666851E-16  8.96004118083798E-02
 cg2d: Sum(rhs),rhsMax =   3.29705880652842E-16  8.91643085772387E-02
 cg2d: Sum(rhs),rhsMax =   0.00000000000000E+00  8.87012491963071E-02
 cg2d: Sum(rhs),rhsMax =   3.12250225675825E-16  8.82259313601035E-02
 cg2d: Sum(rhs),rhsMax =   3.92047505570758E-16  8.77463155595601E-02
 cg2d: Sum(rhs),rhsMax =   7.63278329429795E-16  8.72630543857709E-02
 cg2d: Sum(rhs),rhsMax =   9.67975699595058E-16  8.67700994927741E-02
 cg2d: Sum(rhs),rhsMax =   7.66747776381749E-16  8.62563509263764E-02
 cg2d: Sum(rhs),rhsMax =   8.08381139805192E-16  8.57080577579958E-02
 cg2d: Sum(rhs),rhsMax =   7.73686670285656E-16  8.51115724418096E-02
 cg2d: Sum(rhs),rhsMax =   8.79504802320241E-16  8.44560178086906E-02
 cg2d: Sum(rhs),rhsMax =   3.36536354339501E-16  8.37354501110251E-02
 cg2d: Sum(rhs),rhsMax =   4.80518402845576E-16  8.29501895927724E-02
 cg2d: Sum(rhs),rhsMax =   5.61616725347491E-16  8.21071278685081E-02
 cg2d: Sum(rhs),rhsMax =   3.96384314260700E-16  8.12189871241972E-02
 cg2d: Sum(rhs),rhsMax =   5.22151766269019E-16  8.03026729722913E-02
 cg2d: Sum(rhs),rhsMax =   7.40726924242097E-16  7.93770033748157E-02
 cg2d: Sum(rhs),rhsMax =   6.47051856539349E-16  7.84601876427549E-02
 cg2d: Sum(rhs),rhsMax =   8.08381139805192E-16  7.75674583021031E-02
 cg2d: Sum(rhs),rhsMax =   1.15532583500055E-15  7.67092220748067E-02
 cg2d: Sum(rhs),rhsMax =   1.12410081243297E-15  7.58900030268529E-02
 cg2d: Sum(rhs),rhsMax =   8.43075609324728E-16  7.51083185406033E-02
 cg2d: Sum(rhs),rhsMax =   5.48172618408671E-16  7.43574796514155E-02
 cg2d: Sum(rhs),rhsMax =   7.14706072102445E-16  7.36271649238255E-02
 cg2d: Sum(rhs),rhsMax =   1.11716191852906E-15  7.29055024351314E-02
 cg2d: Sum(rhs),rhsMax =   1.03389519168218E-15  7.21813235673774E-02
 --> objf_test(bi,bj)   = -0.849803559945844E+00
 --> objf_tracer(bi,bj) =  0.000000000000000E+00
 --> objf_atl(bi,bj)    =  0.000000000000000E+00
  local fc = -0.849803559945844E+00
 global fc = -0.849803559945844E+00
 ph-check fcpertplus =  -0.84980356
(PID.TID 0000.0001)  MDSREADFIELD: opening file: xx_depth.0000000000.001.001.data
 ph-check fcpertminus =  -0.849803598
(PID.TID 0000.0001)  MDSREADFIELD: opening file: xx_depth.0000000000.001.001.data
(PID.TID 0000.0001)  MDSREADFIELD: opening global file: walls.bigRidge
(PID.TID 0000.0001) // =======================================================
(PID.TID 0000.0001) // Field Bottom depths (ini_depths) at iteration          1
(PID.TID 0000.0001) // CMIN =         -5.000000000000000E+03
(PID.TID 0000.0001) // CMAX =         -2.000000000000000E+03
(PID.TID 0000.0001) // CINT =          1.111111111111111E+02
(PID.TID 0000.0001) // SYMBOLS (CMIN->CMAX): -abcdefghijklmnopqrstuvwxyz+
(PID.TID 0000.0001) //                  0.0: .
(PID.TID 0000.0001) // RANGE I (Lo:Hi:Step):(  -1:   7:   1)
(PID.TID 0000.0001) // RANGE J (Lo:Hi:Step):(   7:  -1:  -1)
(PID.TID 0000.0001) // RANGE K (Lo:Hi:Step):(   1:   1:   1)
(PID.TID 0000.0001) // =======================================================
(PID.TID 0000.0001) K =   1
(PID.TID 0000.0001) //
(PID.TID 0000.0001) // |--J--|*01234567
(PID.TID 0000.0001) //      7 ----+----
(PID.TID 0000.0001) //      6 .........
(PID.TID 0000.0001) //      5 ----+----
(PID.TID 0000.0001) //      4 ----+----
(PID.TID 0000.0001) //      3 ----+----
(PID.TID 0000.0001) //      2 ----+----
(PID.TID 0000.0001) //      1 .........
(PID.TID 0000.0001) //      0 ----+----
(PID.TID 0000.0001) //     -1 ----+----
(PID.TID 0000.0001) // =======================================================
(PID.TID 0000.0001) // END OF FIELD                                          =
(PID.TID 0000.0001) // =======================================================
(PID.TID 0000.0001) 
(PID.TID 0000.0001) // =======================================================
(PID.TID 0000.0001) // Field Model R_low (ini_masks_etc) at iteration          1
(PID.TID 0000.0001) // CMIN =         -5.000000000000000E+03
(PID.TID 0000.0001) // CMAX =         -2.000000000000000E+03
(PID.TID 0000.0001) // CINT =          1.111111111111111E+02
(PID.TID 0000.0001) // SYMBOLS (CMIN->CMAX): -abcdefghijklmnopqrstuvwxyz+
(PID.TID 0000.0001) //                  0.0: .
(PID.TID 0000.0001) // RANGE I (Lo:Hi:Step):(  -1:   7:   1)
(PID.TID 0000.0001) // RANGE J (Lo:Hi:Step):(   7:  -1:  -1)
(PID.TID 0000.0001) // RANGE K (Lo:Hi:Step):(   1:   1:   1)
(PID.TID 0000.0001) // =======================================================
(PID.TID 0000.0001) K =   1
(PID.TID 0000.0001) //
(PID.TID 0000.0001) // |--J--|*01234567
(PID.TID 0000.0001) //      7 ----+----
(PID.TID 0000.0001) //      6 .........
(PID.TID 0000.0001) //      5 ----+----
(PID.TID 0000.0001) //      4 ----+----
(PID.TID 0000.0001) //      3 ----+----
(PID.TID 0000.0001) //      2 ----+----
(PID.TID 0000.0001) //      1 .........
(PID.TID 0000.0001) //      0 ----+----
(PID.TID 0000.0001) //     -1 ----+----
(PID.TID 0000.0001) // =======================================================
(PID.TID 0000.0001) // END OF FIELD                                          =
(PID.TID 0000.0001) // =======================================================
(PID.TID 0000.0001) 
(PID.TID 0000.0001) // =======================================================
(PID.TID 0000.0001) // Field Model Ro_surf (ini_masks_etc) at iteration          1
(PID.TID 0000.0001) // CMIN =          2.273736754432321E-13
(PID.TID 0000.0001) // CMAX =          2.273736754432321E-13
(PID.TID 0000.0001) // CINT =          0.000000000000000E+00
(PID.TID 0000.0001) // SYMBOLS (CMIN->CMAX): -abcdefghijklmnopqrstuvwxyz+
(PID.TID 0000.0001) //                  0.0: .
(PID.TID 0000.0001) // RANGE I (Lo:Hi:Step):(  -1:   7:   1)
(PID.TID 0000.0001) // RANGE J (Lo:Hi:Step):(   7:  -1:  -1)
(PID.TID 0000.0001) // RANGE K (Lo:Hi:Step):(   1:   1:   1)
(PID.TID 0000.0001) // =======================================================
(PID.TID 0000.0001) // =======================================================
(PID.TID 0000.0001) // END OF FIELD                                          =
(PID.TID 0000.0001) // =======================================================
(PID.TID 0000.0001) 
(PID.TID 0000.0001) // =======================================================
(PID.TID 0000.0001) // Field hFacC at iteration          1
(PID.TID 0000.0001) // CMIN =          1.000000000000000E+00
(PID.TID 0000.0001) // CMAX =          1.000000000000000E+00
(PID.TID 0000.0001) // CINT =          0.000000000000000E+00
(PID.TID 0000.0001) // SYMBOLS (CMIN->CMAX): -abcdefghijklmnopqrstuvwxyz+
(PID.TID 0000.0001) //                  0.0: .
(PID.TID 0000.0001) // RANGE I (Lo:Hi:Step):(  -1:   7:   1)
(PID.TID 0000.0001) // RANGE J (Lo:Hi:Step):(   7:  -1:  -1)
(PID.TID 0000.0001) // RANGE K (Lo:Hi:Step):(   1:   1:   1)
(PID.TID 0000.0001) // =======================================================
(PID.TID 0000.0001) // =======================================================
(PID.TID 0000.0001) // END OF FIELD                                          =
(PID.TID 0000.0001) // =======================================================
(PID.TID 0000.0001) 
(PID.TID 0000.0001) // =======================================================
(PID.TID 0000.0001) // Field hFacW at iteration          1
(PID.TID 0000.0001) // CMIN =          1.000000000000000E+00
(PID.TID 0000.0001) // CMAX =          1.000000000000000E+00
(PID.TID 0000.0001) // CINT =          0.000000000000000E+00
(PID.TID 0000.0001) // SYMBOLS (CMIN->CMAX): -abcdefghijklmnopqrstuvwxyz+
(PID.TID 0000.0001) //                  0.0: .
(PID.TID 0000.0001) // RANGE I (Lo:Hi:Step):(  -1:   7:   1)
(PID.TID 0000.0001) // RANGE J (Lo:Hi:Step):(   7:  -1:  -1)
(PID.TID 0000.0001) // RANGE K (Lo:Hi:Step):(   1:   1:   1)
(PID.TID 0000.0001) // =======================================================
(PID.TID 0000.0001) // =======================================================
(PID.TID 0000.0001) // END OF FIELD                                          =
(PID.TID 0000.0001) // =======================================================
(PID.TID 0000.0001) 
(PID.TID 0000.0001) // =======================================================
(PID.TID 0000.0001) // Field hFacS at iteration          1
(PID.TID 0000.0001) // CMIN =          1.000000000000000E+00
(PID.TID 0000.0001) // CMAX =          1.000000000000000E+00
(PID.TID 0000.0001) // CINT =          0.000000000000000E+00
(PID.TID 0000.0001) // SYMBOLS (CMIN->CMAX): -abcdefghijklmnopqrstuvwxyz+
(PID.TID 0000.0001) //                  0.0: .
(PID.TID 0000.0001) // RANGE I (Lo:Hi:Step):(  -1:   7:   1)
(PID.TID 0000.0001) // RANGE J (Lo:Hi:Step):(   7:  -1:  -1)
(PID.TID 0000.0001) // RANGE K (Lo:Hi:Step):(   1:   1:   1)
(PID.TID 0000.0001) // =======================================================
(PID.TID 0000.0001) // =======================================================
(PID.TID 0000.0001) // END OF FIELD                                          =
(PID.TID 0000.0001) // =======================================================
(PID.TID 0000.0001) 
(PID.TID 0000.0001) %MON surfExpanfCori_max           =  -1.0735540000000E-04
(PID.TID 0000.0001) %MON surfExpanfCori_min           =  -1.1783060000000E-04
(PID.TID 0000.0001) %MON surfExpanfCori_mean          =  -1.1259300000000E-04
(PID.TID 0000.0001) %MON surfExpanfCori_sd            =   3.7035424771427E-06
(PID.TID 0000.0001) %MON surfExpanfCoriG_max          =  -1.0866480000000E-04
(PID.TID 0000.0001) %MON surfExpanfCoriG_min          =  -1.1914000000000E-04
(PID.TID 0000.0001) %MON surfExpanfCoriG_mean         =  -1.1390240000000E-04
(PID.TID 0000.0001) %MON surfExpanfCoriG_sd           =   3.7035424771427E-06
(PID.TID 0000.0001) %MON surfExpanfCoriCos_max        =   0.0000000000000E+00
(PID.TID 0000.0001) %MON surfExpanfCoriCos_min        =   0.0000000000000E+00
(PID.TID 0000.0001) %MON surfExpanfCoriCos_mean       =   0.0000000000000E+00
(PID.TID 0000.0001) %MON surfExpanfCoriCos_sd         =   0.0000000000000E+00
(PID.TID 0000.0001) INI_CG2D: CG2D normalisation factor =  1.9999999999999996E-04
(PID.TID 0000.0001) 
                     ctrl_depth_ini: ctrl update R_low,
                                     adding the control vector.
(PID.TID 0000.0001)  MDSREADFIELD: opening file: xx_depth.0000000000.001.001.data
(PID.TID 0000.0001) // =======================================================
(PID.TID 0000.0001) // Field Model Ro_surf (update_masks_etc) at iteration          1
(PID.TID 0000.0001) // CMIN =          2.273736754432321E-13
(PID.TID 0000.0001) // CMAX =          2.273736754432321E-13
(PID.TID 0000.0001) // CINT =          0.000000000000000E+00
(PID.TID 0000.0001) // SYMBOLS (CMIN->CMAX): -abcdefghijklmnopqrstuvwxyz+
(PID.TID 0000.0001) //                  0.0: .
(PID.TID 0000.0001) // RANGE I (Lo:Hi:Step):(  -1:   7:   1)
(PID.TID 0000.0001) // RANGE J (Lo:Hi:Step):(   7:  -1:  -1)
(PID.TID 0000.0001) // RANGE K (Lo:Hi:Step):(   1:   1:   1)
(PID.TID 0000.0001) // =======================================================
(PID.TID 0000.0001) // =======================================================
(PID.TID 0000.0001) // END OF FIELD                                          =
(PID.TID 0000.0001) // =======================================================
(PID.TID 0000.0001) 
(PID.TID 0000.0001) // =======================================================
(PID.TID 0000.0001) // Field hFacC at iteration          1
(PID.TID 0000.0001) // CMIN =          1.000000000000000E+00
(PID.TID 0000.0001) // CMAX =          1.000000000000000E+00
(PID.TID 0000.0001) // CINT =          0.000000000000000E+00
(PID.TID 0000.0001) // SYMBOLS (CMIN->CMAX): -abcdefghijklmnopqrstuvwxyz+
(PID.TID 0000.0001) //                  0.0: .
(PID.TID 0000.0001) // RANGE I (Lo:Hi:Step):(  -1:   7:   1)
(PID.TID 0000.0001) // RANGE J (Lo:Hi:Step):(   7:  -1:  -1)
(PID.TID 0000.0001) // RANGE K (Lo:Hi:Step):(   1:   1:   1)
(PID.TID 0000.0001) // =======================================================
(PID.TID 0000.0001) // =======================================================
(PID.TID 0000.0001) // END OF FIELD                                          =
(PID.TID 0000.0001) // =======================================================
(PID.TID 0000.0001) 
(PID.TID 0000.0001) // =======================================================
(PID.TID 0000.0001) // Field hFacW at iteration          1
(PID.TID 0000.0001) // CMIN =          1.000000000000000E+00
(PID.TID 0000.0001) // CMAX =          1.000000000000000E+00
(PID.TID 0000.0001) // CINT =          0.000000000000000E+00
(PID.TID 0000.0001) // SYMBOLS (CMIN->CMAX): -abcdefghijklmnopqrstuvwxyz+
(PID.TID 0000.0001) //                  0.0: .
(PID.TID 0000.0001) // RANGE I (Lo:Hi:Step):(  -1:   7:   1)
(PID.TID 0000.0001) // RANGE J (Lo:Hi:Step):(   7:  -1:  -1)
(PID.TID 0000.0001) // RANGE K (Lo:Hi:Step):(   1:   1:   1)
(PID.TID 0000.0001) // =======================================================
(PID.TID 0000.0001) // =======================================================
(PID.TID 0000.0001) // END OF FIELD                                          =
(PID.TID 0000.0001) // =======================================================
(PID.TID 0000.0001) 
(PID.TID 0000.0001) // =======================================================
(PID.TID 0000.0001) // Field hFacS at iteration          1
(PID.TID 0000.0001) // CMIN =          1.000000000000000E+00
(PID.TID 0000.0001) // CMAX =          1.000000000000000E+00
(PID.TID 0000.0001) // CINT =          0.000000000000000E+00
(PID.TID 0000.0001) // SYMBOLS (CMIN->CMAX): -abcdefghijklmnopqrstuvwxyz+
(PID.TID 0000.0001) //                  0.0: .
(PID.TID 0000.0001) // RANGE I (Lo:Hi:Step):(  -1:   7:   1)
(PID.TID 0000.0001) // RANGE J (Lo:Hi:Step):(   7:  -1:  -1)
(PID.TID 0000.0001) // RANGE K (Lo:Hi:Step):(   1:   1:   1)
(PID.TID 0000.0001) // =======================================================
(PID.TID 0000.0001) // =======================================================
(PID.TID 0000.0001) // END OF FIELD                                          =
(PID.TID 0000.0001) // =======================================================
(PID.TID 0000.0001) 
(PID.TID 0000.0001) // =======================================================
(PID.TID 0000.0001) // Field Initial Temperature at iteration          1
(PID.TID 0000.0001) // CMIN =          4.000000000000000E+00
(PID.TID 0000.0001) // CMAX =          4.000000000000000E+00
(PID.TID 0000.0001) // CINT =          0.000000000000000E+00
(PID.TID 0000.0001) // SYMBOLS (CMIN->CMAX): -abcdefghijklmnopqrstuvwxyz+
(PID.TID 0000.0001) //                  0.0: .
(PID.TID 0000.0001) // RANGE I (Lo:Hi:Step):(   1:   5:   1)
(PID.TID 0000.0001) // RANGE J (Lo:Hi:Step):(   5:   1:  -1)
(PID.TID 0000.0001) // RANGE K (Lo:Hi:Step):(   1:   1:   1)
(PID.TID 0000.0001) // =======================================================
(PID.TID 0000.0001) // =======================================================
(PID.TID 0000.0001) // END OF FIELD                                          =
(PID.TID 0000.0001) // =======================================================
(PID.TID 0000.0001) 
(PID.TID 0000.0001) // =======================================================
(PID.TID 0000.0001) // Field Initial Salinity at iteration          1
(PID.TID 0000.0001) // CMIN =          3.500000000000000E+01
(PID.TID 0000.0001) // CMAX =          3.500000000000000E+01
(PID.TID 0000.0001) // CINT =          0.000000000000000E+00
(PID.TID 0000.0001) // SYMBOLS (CMIN->CMAX): -abcdefghijklmnopqrstuvwxyz+
(PID.TID 0000.0001) //                  0.0: .
(PID.TID 0000.0001) // RANGE I (Lo:Hi:Step):(   1:   5:   1)
(PID.TID 0000.0001) // RANGE J (Lo:Hi:Step):(   5:   1:  -1)
(PID.TID 0000.0001) // RANGE K (Lo:Hi:Step):(   1:   1:   1)
(PID.TID 0000.0001) // =======================================================
(PID.TID 0000.0001) // =======================================================
(PID.TID 0000.0001) // END OF FIELD                                          =
(PID.TID 0000.0001) // =======================================================
(PID.TID 0000.0001) 
(PID.TID 0000.0001) Start initial hydrostatic pressure computation
(PID.TID 0000.0001) Pressure is predetermined for buoyancyRelation OCEANIC
(PID.TID 0000.0001) 
(PID.TID 0000.0001)  MDSREADFIELD: opening global file: windx.sin_y
(PID.TID 0000.0001) // =======================================================
(PID.TID 0000.0001) // Model current state
(PID.TID 0000.0001) // =======================================================
(PID.TID 0000.0001) 
 cg2d: Sum(rhs),rhsMax =   0.00000000000000E+00  0.00000000000000E+00
 cg2d: Sum(rhs),rhsMax =   4.68375338513738E-16  2.62483626325265E-03
 cg2d: Sum(rhs),rhsMax =   5.84601811404184E-16  5.13362630930616E-03
 cg2d: Sum(rhs),rhsMax =   1.79110198894605E-16  7.16168455221716E-03
 cg2d: Sum(rhs),rhsMax =   2.05564731903252E-16  9.29466751307264E-03
 cg2d: Sum(rhs),rhsMax =   4.47558656802016E-16  1.15304356300160E-02
 cg2d: Sum(rhs),rhsMax =   4.71411104596697E-16  1.37809801859463E-02
 cg2d: Sum(rhs),rhsMax =  -3.12250225675825E-17  1.60011247007699E-02
 cg2d: Sum(rhs),rhsMax =  -3.33066907387547E-16  1.82027338042615E-02
 cg2d: Sum(rhs),rhsMax =  -9.29811783123569E-16  2.04493561035081E-02
 cg2d: Sum(rhs),rhsMax =  -1.09634523681734E-15  2.25706027941270E-02
 cg2d: Sum(rhs),rhsMax =  -1.13797860024079E-15  2.45301657410544E-02
 cg2d: Sum(rhs),rhsMax =  -5.82867087928207E-16  2.63097944679694E-02
 cg2d: Sum(rhs),rhsMax =  -9.02056207507940E-16  2.79110497589861E-02
 cg2d: Sum(rhs),rhsMax =  -9.22872889219661E-16  2.93538602837243E-02
 cg2d: Sum(rhs),rhsMax =  -6.45317133063372E-16  3.06720439657152E-02
 cg2d: Sum(rhs),rhsMax =  -1.08940634291343E-15  3.19067817265208E-02
 cg2d: Sum(rhs),rhsMax =  -1.73472347597681E-15  3.30992668412602E-02
 cg2d: Sum(rhs),rhsMax =  -1.31145094783847E-15  3.42837433743299E-02
 cg2d: Sum(rhs),rhsMax =  -6.24500451351651E-16  3.54819651819361E-02
 cg2d: Sum(rhs),rhsMax =  -5.68989300120393E-16  3.66998059635621E-02
 cg2d: Sum(rhs),rhsMax =  -2.15105711021124E-16  3.79264046824480E-02
 cg2d: Sum(rhs),rhsMax =  -6.31439345255558E-16  3.91358859852966E-02
 cg2d: Sum(rhs),rhsMax =  -1.06858966120171E-15  4.02913640871245E-02
 cg2d: Sum(rhs),rhsMax =  -9.15933995315754E-16  4.13506296424848E-02
 cg2d: Sum(rhs),rhsMax =  -5.41233724504764E-16  4.22726608585418E-02
 cg2d: Sum(rhs),rhsMax =  -2.77555756156289E-16  4.30239437313312E-02
 cg2d: Sum(rhs),rhsMax =  -2.08166817117217E-16  4.35835864461361E-02
 cg2d: Sum(rhs),rhsMax =  -3.88578058618805E-16  4.39463980900421E-02
 cg2d: Sum(rhs),rhsMax =  -8.32667268468867E-17  4.41234517195569E-02
 cg2d: Sum(rhs),rhsMax =  -8.32667268468867E-17  4.41400964965436E-02
 cg2d: Sum(rhs),rhsMax =  -2.35922392732846E-16  4.40318244196771E-02
 cg2d: Sum(rhs),rhsMax =  -1.94289029309402E-16  4.38387400478803E-02
 cg2d: Sum(rhs),rhsMax =   3.46944695195361E-16  4.54379560266793E-02
 cg2d: Sum(rhs),rhsMax =   3.88578058618805E-16  4.77259341584342E-02
 cg2d: Sum(rhs),rhsMax =   8.74300631892311E-16  4.99949943091718E-02
 cg2d: Sum(rhs),rhsMax =   8.74300631892311E-16  5.22073346674044E-02
 cg2d: Sum(rhs),rhsMax =   1.01307850997046E-15  5.43317155575598E-02
 cg2d: Sum(rhs),rhsMax =   4.02455846426619E-16  5.63476435033332E-02
 cg2d: Sum(rhs),rhsMax =   6.38378239159465E-16  5.82478248390946E-02
 cg2d: Sum(rhs),rhsMax =   1.38777878078145E-16  6.00385228491221E-02
 cg2d: Sum(rhs),rhsMax =   1.38777878078145E-16  6.17377930353281E-02
 cg2d: Sum(rhs),rhsMax =   5.27355936696949E-16  6.33719184260019E-02
 cg2d: Sum(rhs),rhsMax =   4.71844785465692E-16  6.49706563218324E-02
 cg2d: Sum(rhs),rhsMax =   1.08246744900953E-15  6.65620856829212E-02
 cg2d: Sum(rhs),rhsMax =   7.77156117237610E-16  6.81678814219715E-02
 cg2d: Sum(rhs),rhsMax =   9.43689570931383E-16  6.97997398540021E-02
 cg2d: Sum(rhs),rhsMax =   6.93889390390723E-16  7.14574670125976E-02
 cg2d: Sum(rhs),rhsMax =   1.02695629777827E-15  7.31289630949162E-02
 cg2d: Sum(rhs),rhsMax =   7.49400541621981E-16  7.47920402933726E-02
 cg2d: Sum(rhs),rhsMax =   5.82867087928207E-16  7.64177407574901E-02
 cg2d: Sum(rhs),rhsMax =   6.10622663543836E-16  7.79746102188514E-02
 cg2d: Sum(rhs),rhsMax =   4.71844785465692E-16  7.94332552176379E-02
 cg2d: Sum(rhs),rhsMax =   3.60822483003176E-16  8.07704830814736E-02
 cg2d: Sum(rhs),rhsMax =  -1.66533453693773E-16  8.19723986907687E-02
 cg2d: Sum(rhs),rhsMax =   1.94289029309402E-16  8.30360023734702E-02
 cg2d: Sum(rhs),rhsMax =   3.88578058618805E-16  8.39690753793231E-02
 cg2d: Sum(rhs),rhsMax =   1.38777878078145E-16  8.47884152374625E-02
 cg2d: Sum(rhs),rhsMax =   2.91433543964104E-16  8.55167461062797E-02
 cg2d: Sum(rhs),rhsMax =   7.07767178198537E-16  8.61788330200301E-02
 cg2d: Sum(rhs),rhsMax =   5.96744875736022E-16  8.67974391001697E-02
 cg2d: Sum(rhs),rhsMax =   5.96744875736022E-16  8.73897657712092E-02
 cg2d: Sum(rhs),rhsMax =   8.18789480661053E-16  8.79649136221727E-02
 cg2d: Sum(rhs),rhsMax =   6.66133814775094E-16  8.85227195810161E-02
 cg2d: Sum(rhs),rhsMax =   1.52655665885959E-16  8.90540991175524E-02
 cg2d: Sum(rhs),rhsMax =   2.22044604925031E-16  8.95427877439007E-02
 cg2d: Sum(rhs),rhsMax =   5.27355936696949E-16  8.99681683410099E-02
 cg2d: Sum(rhs),rhsMax =   6.17561557447743E-16  9.03087171968579E-02
 cg2d: Sum(rhs),rhsMax =   6.59194920871187E-16  9.05455211218339E-02
 cg2d: Sum(rhs),rhsMax =   8.39606162372775E-16  9.06653203570670E-02
 cg2d: Sum(rhs),rhsMax =   7.14706072102445E-16  9.06626165656295E-02
 cg2d: Sum(rhs),rhsMax =   5.48172618408671E-16  9.05405398808313E-02
 cg2d: Sum(rhs),rhsMax =   8.15320033709099E-16  9.03103703098990E-02
 cg2d: Sum(rhs),rhsMax =   4.02455846426619E-16  8.99898244257171E-02
 cg2d: Sum(rhs),rhsMax =   3.34801630863524E-16  8.96004122645030E-02
 cg2d: Sum(rhs),rhsMax =   2.89156719401884E-16  8.91643090922472E-02
 cg2d: Sum(rhs),rhsMax =   4.51028103753970E-17  8.87012497696405E-02
 cg2d: Sum(rhs),rhsMax =  -3.05311331771918E-16  8.82259319911798E-02
 cg2d: Sum(rhs),rhsMax =   4.16333634234434E-17  8.77463162476714E-02
 cg2d: Sum(rhs),rhsMax =   2.74086309204336E-16  8.72630551299728E-02
 cg2d: Sum(rhs),rhsMax =   1.38777878078145E-17  8.67701002917873E-02
 cg2d: Sum(rhs),rhsMax =   5.27355936696949E-16  8.62563517785166E-02
 cg2d: Sum(rhs),rhsMax =   5.10008701937181E-16  8.57080586611440E-02
 cg2d: Sum(rhs),rhsMax =   6.67868538251071E-16  8.51115733934261E-02
 cg2d: Sum(rhs),rhsMax =   3.97251675998689E-16  8.44560188058722E-02
 cg2d: Sum(rhs),rhsMax =   5.81132364452230E-16  8.37354511505967E-02
 cg2d: Sum(rhs),rhsMax =   6.53990750443256E-16  8.29501906713979E-02
 cg2d: Sum(rhs),rhsMax =   5.56412554919561E-16  8.21071289828069E-02
 cg2d: Sum(rhs),rhsMax =   8.37004077158809E-16  8.12189882708470E-02
 cg2d: Sum(rhs),rhsMax =   9.37618038765464E-16  8.03026741481058E-02
 cg2d: Sum(rhs),rhsMax =   6.19296280923720E-16  7.93770045767854E-02
 cg2d: Sum(rhs),rhsMax =   1.49186218934005E-16  7.84601888680487E-02
 cg2d: Sum(rhs),rhsMax =   3.33066907387547E-16  7.75674595480325E-02
 cg2d: Sum(rhs),rhsMax =   5.41233724504764E-16  7.67092233387614E-02
 cg2d: Sum(rhs),rhsMax =   6.66133814775094E-16  7.58900043062205E-02
 cg2d: Sum(rhs),rhsMax =   3.98986399474666E-16  7.51083198326869E-02
 cg2d: Sum(rhs),rhsMax =   2.15105711021124E-16  7.43574809533648E-02
 cg2d: Sum(rhs),rhsMax =   2.77555756156289E-17  7.36271662325922E-02
 cg2d: Sum(rhs),rhsMax =   3.60822483003176E-16  7.29055037474580E-02
 cg2d: Sum(rhs),rhsMax =   5.41233724504764E-16  7.21813248798207E-02
 --> objf_test(bi,bj)   = -0.849803635941970E+00
 --> objf_tracer(bi,bj) =  0.000000000000000E+00
 --> objf_atl(bi,bj)    =  0.000000000000000E+00
  local fc = -0.849803635941970E+00
 global fc = -0.849803635941970E+00
(PID.TID 0000.0001)  MDSREADFIELD: opening file: xx_depth.0000000000.001.001.data
 grad-res -------------------------------
 grad-res     0    7    2    3    1   -.849803598E+00 -.849803560E+00 -.849803636E+00
 grad-res     0    7    7    7   20   0.379980860E-03 0.379980630E-03 0.604832872E-06
(PID.TID 0000.0001)       precision_grdchk_result ADM    -8.49803597943908E-01     3.79980859563789E-04
 ph-grd  ierr ---------------------------
 ph-grd  ierr =  0, icomp =  7, ichknum =  7
(PID.TID 0000.0001)  MDSREADFIELD: opening file: adxx_depth.0000000000.001.001.data
(PID.TID 0000.0001)  MDSREADFIELD: opening file: xx_depth.0000000000.001.001.data
(PID.TID 0000.0001)  MDSREADFIELD: opening global file: walls.bigRidge
(PID.TID 0000.0001) // =======================================================
(PID.TID 0000.0001) // Field Bottom depths (ini_depths) at iteration          1
(PID.TID 0000.0001) // CMIN =         -5.000000000000000E+03
(PID.TID 0000.0001) // CMAX =         -2.000000000000000E+03
(PID.TID 0000.0001) // CINT =          1.111111111111111E+02
(PID.TID 0000.0001) // SYMBOLS (CMIN->CMAX): -abcdefghijklmnopqrstuvwxyz+
(PID.TID 0000.0001) //                  0.0: .
(PID.TID 0000.0001) // RANGE I (Lo:Hi:Step):(  -1:   7:   1)
(PID.TID 0000.0001) // RANGE J (Lo:Hi:Step):(   7:  -1:  -1)
(PID.TID 0000.0001) // RANGE K (Lo:Hi:Step):(   1:   1:   1)
(PID.TID 0000.0001) // =======================================================
(PID.TID 0000.0001) K =   1
(PID.TID 0000.0001) //
(PID.TID 0000.0001) // |--J--|*01234567
(PID.TID 0000.0001) //      7 ----+----
(PID.TID 0000.0001) //      6 .........
(PID.TID 0000.0001) //      5 ----+----
(PID.TID 0000.0001) //      4 ----+----
(PID.TID 0000.0001) //      3 ----+----
(PID.TID 0000.0001) //      2 ----+----
(PID.TID 0000.0001) //      1 .........
(PID.TID 0000.0001) //      0 ----+----
(PID.TID 0000.0001) //     -1 ----+----
(PID.TID 0000.0001) // =======================================================
(PID.TID 0000.0001) // END OF FIELD                                          =
(PID.TID 0000.0001) // =======================================================
(PID.TID 0000.0001) 
(PID.TID 0000.0001) // =======================================================
(PID.TID 0000.0001) // Field Model R_low (ini_masks_etc) at iteration          1
(PID.TID 0000.0001) // CMIN =         -5.000000000000000E+03
(PID.TID 0000.0001) // CMAX =         -2.000000000000000E+03
(PID.TID 0000.0001) // CINT =          1.111111111111111E+02
(PID.TID 0000.0001) // SYMBOLS (CMIN->CMAX): -abcdefghijklmnopqrstuvwxyz+
(PID.TID 0000.0001) //                  0.0: .
(PID.TID 0000.0001) // RANGE I (Lo:Hi:Step):(  -1:   7:   1)
(PID.TID 0000.0001) // RANGE J (Lo:Hi:Step):(   7:  -1:  -1)
(PID.TID 0000.0001) // RANGE K (Lo:Hi:Step):(   1:   1:   1)
(PID.TID 0000.0001) // =======================================================
(PID.TID 0000.0001) K =   1
(PID.TID 0000.0001) //
(PID.TID 0000.0001) // |--J--|*01234567
(PID.TID 0000.0001) //      7 ----+----
(PID.TID 0000.0001) //      6 .........
(PID.TID 0000.0001) //      5 ----+----
(PID.TID 0000.0001) //      4 ----+----
(PID.TID 0000.0001) //      3 ----+----
(PID.TID 0000.0001) //      2 ----+----
(PID.TID 0000.0001) //      1 .........
(PID.TID 0000.0001) //      0 ----+----
(PID.TID 0000.0001) //     -1 ----+----
(PID.TID 0000.0001) // =======================================================
(PID.TID 0000.0001) // END OF FIELD                                          =
(PID.TID 0000.0001) // =======================================================
(PID.TID 0000.0001) 
(PID.TID 0000.0001) // =======================================================
(PID.TID 0000.0001) // Field Model Ro_surf (ini_masks_etc) at iteration          1
(PID.TID 0000.0001) // CMIN =          2.273736754432321E-13
(PID.TID 0000.0001) // CMAX =          2.273736754432321E-13
(PID.TID 0000.0001) // CINT =          0.000000000000000E+00
(PID.TID 0000.0001) // SYMBOLS (CMIN->CMAX): -abcdefghijklmnopqrstuvwxyz+
(PID.TID 0000.0001) //                  0.0: .
(PID.TID 0000.0001) // RANGE I (Lo:Hi:Step):(  -1:   7:   1)
(PID.TID 0000.0001) // RANGE J (Lo:Hi:Step):(   7:  -1:  -1)
(PID.TID 0000.0001) // RANGE K (Lo:Hi:Step):(   1:   1:   1)
(PID.TID 0000.0001) // =======================================================
(PID.TID 0000.0001) // =======================================================
(PID.TID 0000.0001) // END OF FIELD                                          =
(PID.TID 0000.0001) // =======================================================
(PID.TID 0000.0001) 
(PID.TID 0000.0001) // =======================================================
(PID.TID 0000.0001) // Field hFacC at iteration          1
(PID.TID 0000.0001) // CMIN =          1.000000000000000E+00
(PID.TID 0000.0001) // CMAX =          1.000000000000000E+00
(PID.TID 0000.0001) // CINT =          0.000000000000000E+00
(PID.TID 0000.0001) // SYMBOLS (CMIN->CMAX): -abcdefghijklmnopqrstuvwxyz+
(PID.TID 0000.0001) //                  0.0: .
(PID.TID 0000.0001) // RANGE I (Lo:Hi:Step):(  -1:   7:   1)
(PID.TID 0000.0001) // RANGE J (Lo:Hi:Step):(   7:  -1:  -1)
(PID.TID 0000.0001) // RANGE K (Lo:Hi:Step):(   1:   1:   1)
(PID.TID 0000.0001) // =======================================================
(PID.TID 0000.0001) // =======================================================
(PID.TID 0000.0001) // END OF FIELD                                          =
(PID.TID 0000.0001) // =======================================================
(PID.TID 0000.0001) 
(PID.TID 0000.0001) // =======================================================
(PID.TID 0000.0001) // Field hFacW at iteration          1
(PID.TID 0000.0001) // CMIN =          1.000000000000000E+00
(PID.TID 0000.0001) // CMAX =          1.000000000000000E+00
(PID.TID 0000.0001) // CINT =          0.000000000000000E+00
(PID.TID 0000.0001) // SYMBOLS (CMIN->CMAX): -abcdefghijklmnopqrstuvwxyz+
(PID.TID 0000.0001) //                  0.0: .
(PID.TID 0000.0001) // RANGE I (Lo:Hi:Step):(  -1:   7:   1)
(PID.TID 0000.0001) // RANGE J (Lo:Hi:Step):(   7:  -1:  -1)
(PID.TID 0000.0001) // RANGE K (Lo:Hi:Step):(   1:   1:   1)
(PID.TID 0000.0001) // =======================================================
(PID.TID 0000.0001) // =======================================================
(PID.TID 0000.0001) // END OF FIELD                                          =
(PID.TID 0000.0001) // =======================================================
(PID.TID 0000.0001) 
(PID.TID 0000.0001) // =======================================================
(PID.TID 0000.0001) // Field hFacS at iteration          1
(PID.TID 0000.0001) // CMIN =          1.000000000000000E+00
(PID.TID 0000.0001) // CMAX =          1.000000000000000E+00
(PID.TID 0000.0001) // CINT =          0.000000000000000E+00
(PID.TID 0000.0001) // SYMBOLS (CMIN->CMAX): -abcdefghijklmnopqrstuvwxyz+
(PID.TID 0000.0001) //                  0.0: .
(PID.TID 0000.0001) // RANGE I (Lo:Hi:Step):(  -1:   7:   1)
(PID.TID 0000.0001) // RANGE J (Lo:Hi:Step):(   7:  -1:  -1)
(PID.TID 0000.0001) // RANGE K (Lo:Hi:Step):(   1:   1:   1)
(PID.TID 0000.0001) // =======================================================
(PID.TID 0000.0001) // =======================================================
(PID.TID 0000.0001) // END OF FIELD                                          =
(PID.TID 0000.0001) // =======================================================
(PID.TID 0000.0001) 
(PID.TID 0000.0001) %MON surfExpanfCori_max           =  -1.0735540000000E-04
(PID.TID 0000.0001) %MON surfExpanfCori_min           =  -1.1783060000000E-04
(PID.TID 0000.0001) %MON surfExpanfCori_mean          =  -1.1259300000000E-04
(PID.TID 0000.0001) %MON surfExpanfCori_sd            =   3.7035424771427E-06
(PID.TID 0000.0001) %MON surfExpanfCoriG_max          =  -1.0866480000000E-04
(PID.TID 0000.0001) %MON surfExpanfCoriG_min          =  -1.1914000000000E-04
(PID.TID 0000.0001) %MON surfExpanfCoriG_mean         =  -1.1390240000000E-04
(PID.TID 0000.0001) %MON surfExpanfCoriG_sd           =   3.7035424771427E-06
(PID.TID 0000.0001) %MON surfExpanfCoriCos_max        =   0.0000000000000E+00
(PID.TID 0000.0001) %MON surfExpanfCoriCos_min        =   0.0000000000000E+00
(PID.TID 0000.0001) %MON surfExpanfCoriCos_mean       =   0.0000000000000E+00
(PID.TID 0000.0001) %MON surfExpanfCoriCos_sd         =   0.0000000000000E+00
(PID.TID 0000.0001) INI_CG2D: CG2D normalisation factor =  1.9999999999999996E-04
(PID.TID 0000.0001) 
                     ctrl_depth_ini: ctrl update R_low,
                                     adding the control vector.
(PID.TID 0000.0001)  MDSREADFIELD: opening file: xx_depth.0000000000.001.001.data
(PID.TID 0000.0001) // =======================================================
(PID.TID 0000.0001) // Field Model Ro_surf (update_masks_etc) at iteration          1
(PID.TID 0000.0001) // CMIN =          2.273736754432321E-13
(PID.TID 0000.0001) // CMAX =          2.273736754432321E-13
(PID.TID 0000.0001) // CINT =          0.000000000000000E+00
(PID.TID 0000.0001) // SYMBOLS (CMIN->CMAX): -abcdefghijklmnopqrstuvwxyz+
(PID.TID 0000.0001) //                  0.0: .
(PID.TID 0000.0001) // RANGE I (Lo:Hi:Step):(  -1:   7:   1)
(PID.TID 0000.0001) // RANGE J (Lo:Hi:Step):(   7:  -1:  -1)
(PID.TID 0000.0001) // RANGE K (Lo:Hi:Step):(   1:   1:   1)
(PID.TID 0000.0001) // =======================================================
(PID.TID 0000.0001) // =======================================================
(PID.TID 0000.0001) // END OF FIELD                                          =
(PID.TID 0000.0001) // =======================================================
(PID.TID 0000.0001) 
(PID.TID 0000.0001) // =======================================================
(PID.TID 0000.0001) // Field hFacC at iteration          1
(PID.TID 0000.0001) // CMIN =          1.000000000000000E+00
(PID.TID 0000.0001) // CMAX =          1.000000000000000E+00
(PID.TID 0000.0001) // CINT =          0.000000000000000E+00
(PID.TID 0000.0001) // SYMBOLS (CMIN->CMAX): -abcdefghijklmnopqrstuvwxyz+
(PID.TID 0000.0001) //                  0.0: .
(PID.TID 0000.0001) // RANGE I (Lo:Hi:Step):(  -1:   7:   1)
(PID.TID 0000.0001) // RANGE J (Lo:Hi:Step):(   7:  -1:  -1)
(PID.TID 0000.0001) // RANGE K (Lo:Hi:Step):(   1:   1:   1)
(PID.TID 0000.0001) // =======================================================
(PID.TID 0000.0001) // =======================================================
(PID.TID 0000.0001) // END OF FIELD                                          =
(PID.TID 0000.0001) // =======================================================
(PID.TID 0000.0001) 
(PID.TID 0000.0001) // =======================================================
(PID.TID 0000.0001) // Field hFacW at iteration          1
(PID.TID 0000.0001) // CMIN =          1.000000000000000E+00
(PID.TID 0000.0001) // CMAX =          1.000000000000000E+00
(PID.TID 0000.0001) // CINT =          0.000000000000000E+00
(PID.TID 0000.0001) // SYMBOLS (CMIN->CMAX): -abcdefghijklmnopqrstuvwxyz+
(PID.TID 0000.0001) //                  0.0: .
(PID.TID 0000.0001) // RANGE I (Lo:Hi:Step):(  -1:   7:   1)
(PID.TID 0000.0001) // RANGE J (Lo:Hi:Step):(   7:  -1:  -1)
(PID.TID 0000.0001) // RANGE K (Lo:Hi:Step):(   1:   1:   1)
(PID.TID 0000.0001) // =======================================================
(PID.TID 0000.0001) // =======================================================
(PID.TID 0000.0001) // END OF FIELD                                          =
(PID.TID 0000.0001) // =======================================================
(PID.TID 0000.0001) 
(PID.TID 0000.0001) // =======================================================
(PID.TID 0000.0001) // Field hFacS at iteration          1
(PID.TID 0000.0001) // CMIN =          1.000000000000000E+00
(PID.TID 0000.0001) // CMAX =          1.000000000000000E+00
(PID.TID 0000.0001) // CINT =          0.000000000000000E+00
(PID.TID 0000.0001) // SYMBOLS (CMIN->CMAX): -abcdefghijklmnopqrstuvwxyz+
(PID.TID 0000.0001) //                  0.0: .
(PID.TID 0000.0001) // RANGE I (Lo:Hi:Step):(  -1:   7:   1)
(PID.TID 0000.0001) // RANGE J (Lo:Hi:Step):(   7:  -1:  -1)
(PID.TID 0000.0001) // RANGE K (Lo:Hi:Step):(   1:   1:   1)
(PID.TID 0000.0001) // =======================================================
(PID.TID 0000.0001) // =======================================================
(PID.TID 0000.0001) // END OF FIELD                                          =
(PID.TID 0000.0001) // =======================================================
(PID.TID 0000.0001) 
(PID.TID 0000.0001) // =======================================================
(PID.TID 0000.0001) // Field Initial Temperature at iteration          1
(PID.TID 0000.0001) // CMIN =          4.000000000000000E+00
(PID.TID 0000.0001) // CMAX =          4.000000000000000E+00
(PID.TID 0000.0001) // CINT =          0.000000000000000E+00
(PID.TID 0000.0001) // SYMBOLS (CMIN->CMAX): -abcdefghijklmnopqrstuvwxyz+
(PID.TID 0000.0001) //                  0.0: .
(PID.TID 0000.0001) // RANGE I (Lo:Hi:Step):(   1:   5:   1)
(PID.TID 0000.0001) // RANGE J (Lo:Hi:Step):(   5:   1:  -1)
(PID.TID 0000.0001) // RANGE K (Lo:Hi:Step):(   1:   1:   1)
(PID.TID 0000.0001) // =======================================================
(PID.TID 0000.0001) // =======================================================
(PID.TID 0000.0001) // END OF FIELD                                          =
(PID.TID 0000.0001) // =======================================================
(PID.TID 0000.0001) 
(PID.TID 0000.0001) // =======================================================
(PID.TID 0000.0001) // Field Initial Salinity at iteration          1
(PID.TID 0000.0001) // CMIN =          3.500000000000000E+01
(PID.TID 0000.0001) // CMAX =          3.500000000000000E+01
(PID.TID 0000.0001) // CINT =          0.000000000000000E+00
(PID.TID 0000.0001) // SYMBOLS (CMIN->CMAX): -abcdefghijklmnopqrstuvwxyz+
(PID.TID 0000.0001) //                  0.0: .
(PID.TID 0000.0001) // RANGE I (Lo:Hi:Step):(   1:   5:   1)
(PID.TID 0000.0001) // RANGE J (Lo:Hi:Step):(   5:   1:  -1)
(PID.TID 0000.0001) // RANGE K (Lo:Hi:Step):(   1:   1:   1)
(PID.TID 0000.0001) // =======================================================
(PID.TID 0000.0001) // =======================================================
(PID.TID 0000.0001) // END OF FIELD                                          =
(PID.TID 0000.0001) // =======================================================
(PID.TID 0000.0001) 
(PID.TID 0000.0001) Start initial hydrostatic pressure computation
(PID.TID 0000.0001) Pressure is predetermined for buoyancyRelation OCEANIC
(PID.TID 0000.0001) 
(PID.TID 0000.0001)  MDSREADFIELD: opening global file: windx.sin_y
(PID.TID 0000.0001) // =======================================================
(PID.TID 0000.0001) // Model current state
(PID.TID 0000.0001) // =======================================================
(PID.TID 0000.0001) 
 cg2d: Sum(rhs),rhsMax =   0.00000000000000E+00  0.00000000000000E+00
 cg2d: Sum(rhs),rhsMax =   4.68375338513738E-16  2.62483626325265E-03
 cg2d: Sum(rhs),rhsMax =   5.03937169771262E-16  5.13362633374359E-03
 cg2d: Sum(rhs),rhsMax =  -2.26381413614973E-16  7.16168460871610E-03
 cg2d: Sum(rhs),rhsMax =  -3.98986399474666E-17  9.29466758531980E-03
 cg2d: Sum(rhs),rhsMax =   4.12864187282480E-16  1.15304357129165E-02
 cg2d: Sum(rhs),rhsMax =   3.45643652588379E-16  1.37809802730331E-02
 cg2d: Sum(rhs),rhsMax =  -3.64291929955129E-16  1.60011247836394E-02
 cg2d: Sum(rhs),rhsMax =  -2.98372437868011E-16  1.82027338017672E-02
 cg2d: Sum(rhs),rhsMax =   6.66133814775094E-16  2.04493561007382E-02
 cg2d: Sum(rhs),rhsMax =   1.12410081243297E-15  2.25706027879521E-02
 cg2d: Sum(rhs),rhsMax =   1.54043444666740E-15  2.45301657267247E-02
 cg2d: Sum(rhs),rhsMax =   1.29063426612674E-15  2.63097944394212E-02
 cg2d: Sum(rhs),rhsMax =   1.09634523681734E-15  2.79110497093375E-02
 cg2d: Sum(rhs),rhsMax =   1.90819582357449E-15  2.93538602058825E-02
 cg2d: Sum(rhs),rhsMax =   2.28289609438548E-15  3.06720438530071E-02
 cg2d: Sum(rhs),rhsMax =   1.65839564303383E-15  3.19067815732483E-02
 cg2d: Sum(rhs),rhsMax =   1.80411241501588E-15  3.30992666430986E-02
 cg2d: Sum(rhs),rhsMax =   1.40165656858926E-15  3.42837431285166E-02
 cg2d: Sum(rhs),rhsMax =   2.19962936753859E-15  3.54819648872284E-02
 cg2d: Sum(rhs),rhsMax =   2.54657406273395E-15  3.66998056199815E-02
 cg2d: Sum(rhs),rhsMax =   2.64371857738865E-15  3.79264042908589E-02
 cg2d: Sum(rhs),rhsMax =   2.72004641033163E-15  3.91358855468946E-02
 cg2d: Sum(rhs),rhsMax =   2.40085729075190E-15  4.02913636029179E-02
 cg2d: Sum(rhs),rhsMax =   1.36002320516582E-15  4.13506291128544E-02
 cg2d: Sum(rhs),rhsMax =   1.23512311489549E-15  4.22726602829474E-02
 cg2d: Sum(rhs),rhsMax =   1.15185638804860E-15  4.30239431082090E-02
 cg2d: Sum(rhs),rhsMax =   1.36002320516582E-15  4.35835857730005E-02
 cg2d: Sum(rhs),rhsMax =   1.06858966120171E-15  4.39463973637709E-02
 cg2d: Sum(rhs),rhsMax =   6.80011602582908E-16  4.41234509368125E-02
 cg2d: Sum(rhs),rhsMax =   8.18789480661053E-16  4.41400956542636E-02
 cg2d: Sum(rhs),rhsMax =   1.05471187339390E-15  4.40318235155551E-02
 cg2d: Sum(rhs),rhsMax =   9.71445146547012E-16  4.38387390807665E-02
 cg2d: Sum(rhs),rhsMax =   5.82867087928207E-16  4.54379569878343E-02
 cg2d: Sum(rhs),rhsMax =   5.68989300120393E-16  4.77259351335064E-02
 cg2d: Sum(rhs),rhsMax =   4.71844785465692E-16  4.99949952934224E-02
 cg2d: Sum(rhs),rhsMax =   7.63278329429795E-16  5.22073356568272E-02
 cg2d: Sum(rhs),rhsMax =   3.05311331771918E-16  5.43317165489481E-02
 cg2d: Sum(rhs),rhsMax =   1.52655665885959E-16  5.63476444942001E-02
 cg2d: Sum(rhs),rhsMax =   5.27355936696949E-16  5.82478258274632E-02
 cg2d: Sum(rhs),rhsMax =   2.49800180540660E-16  6.00385238332253E-02
 cg2d: Sum(rhs),rhsMax =   0.00000000000000E+00  6.17377940132691E-02
 cg2d: Sum(rhs),rhsMax =   5.55111512312578E-17  6.33719193954314E-02
 cg2d: Sum(rhs),rhsMax =  -3.60822483003176E-16  6.49706572796948E-02
 cg2d: Sum(rhs),rhsMax =  -8.32667268468867E-17  6.65620866253106E-02
 cg2d: Sum(rhs),rhsMax =  -3.05311331771918E-16  6.81678823441194E-02
 cg2d: Sum(rhs),rhsMax =  -1.94289029309402E-16  6.97997407503960E-02
 cg2d: Sum(rhs),rhsMax =  -5.55111512312578E-16  7.14574678772139E-02
 cg2d: Sum(rhs),rhsMax =   5.55111512312578E-17  7.31289639215276E-02
 cg2d: Sum(rhs),rhsMax =  -1.66533453693773E-16  7.47920410758852E-02
 cg2d: Sum(rhs),rhsMax =  -6.66133814775094E-16  7.64177414902577E-02
 cg2d: Sum(rhs),rhsMax =  -8.04911692853238E-16  7.79746108969238E-02
 cg2d: Sum(rhs),rhsMax =  -8.32667268468867E-16  7.94332558369077E-02
 cg2d: Sum(rhs),rhsMax =  -1.47104550762833E-15  8.07704836387059E-02
 cg2d: Sum(rhs),rhsMax =  -1.30451205393456E-15  8.19723991835154E-02
 cg2d: Sum(rhs),rhsMax =  -1.38777878078145E-15  8.30360027998884E-02
 cg2d: Sum(rhs),rhsMax =  -1.22124532708767E-15  8.39690757379338E-02
 cg2d: Sum(rhs),rhsMax =  -1.22124532708767E-15  8.47884155268896E-02
 cg2d: Sum(rhs),rhsMax =  -1.48492329543615E-15  8.55167463250166E-02
 cg2d: Sum(rhs),rhsMax =  -1.73472347597681E-15  8.61788331662704E-02
 cg2d: Sum(rhs),rhsMax =  -1.77635683940025E-15  8.67974391717314E-02
 cg2d: Sum(rhs),rhsMax =  -1.66533453693773E-15  8.73897657655620E-02
 cg2d: Sum(rhs),rhsMax =  -1.42941214420489E-15  8.79649135365646E-02
 cg2d: Sum(rhs),rhsMax =  -1.83186799063151E-15  8.85227194126782E-02
 cg2d: Sum(rhs),rhsMax =  -1.80411241501588E-15  8.90540988639482E-02
 cg2d: Sum(rhs),rhsMax =  -1.62370117351429E-15  8.95427874029814E-02
 cg2d: Sum(rhs),rhsMax =  -1.58206781009085E-15  8.99681679114358E-02
 cg2d: Sum(rhs),rhsMax =  -1.33226762955019E-15  9.03087166781533E-02
 cg2d: Sum(rhs),rhsMax =  -1.22124532708767E-15  9.05455205144517E-02
 cg2d: Sum(rhs),rhsMax =  -7.84095011141517E-16  9.06653196623573E-02
 cg2d: Sum(rhs),rhsMax =  -8.32667268468867E-16  9.06626157857185E-02
 cg2d: Sum(rhs),rhsMax =  -8.32667268468867E-16  9.05405390184309E-02
 cg2d: Sum(rhs),rhsMax =  -1.14491749414469E-15  9.03103693680801E-02
 cg2d: Sum(rhs),rhsMax =  -1.92554305833426E-15  8.99898234076808E-02
 cg2d: Sum(rhs),rhsMax =  -1.98972782694540E-15  8.96004111733847E-02
 cg2d: Sum(rhs),rhsMax =  -2.16970538757799E-15  8.91643079309845E-02
 cg2d: Sum(rhs),rhsMax =  -2.68361721733612E-15  8.87012485409193E-02
 cg2d: Sum(rhs),rhsMax =  -2.95943825001643E-15  8.82259306974664E-02
 cg2d: Sum(rhs),rhsMax =  -2.74433253899531E-15  8.77463148913190E-02
 cg2d: Sum(rhs),rhsMax =  -2.68188249386014E-15  8.72630537133840E-02
 cg2d: Sum(rhs),rhsMax =  -2.65065747129256E-15  8.67700988176014E-02
 cg2d: Sum(rhs),rhsMax =  -2.92474378049690E-15  8.62563502497901E-02
 cg2d: Sum(rhs),rhsMax =  -2.83280343627013E-15  8.57080570814941E-02
 cg2d: Sum(rhs),rhsMax =  -2.78596590241875E-15  8.51115717671121E-02
 cg2d: Sum(rhs),rhsMax =  -3.17280923756158E-15  8.44560171378008E-02
 cg2d: Sum(rhs),rhsMax =  -3.08260361681079E-15  8.37354494462508E-02
 cg2d: Sum(rhs),rhsMax =  -3.47291639890557E-15  8.29501889366972E-02
 cg2d: Sum(rhs),rhsMax =  -3.28643362523806E-15  8.21071272239221E-02
 cg2d: Sum(rhs),rhsMax =  -3.23005511226881E-15  8.12189864939947E-02
 cg2d: Sum(rhs),rhsMax =  -3.56572410487033E-15  8.03026723593529E-02
 cg2d: Sum(rhs),rhsMax =  -3.48159001628545E-15  7.93770027818918E-02
 cg2d: Sum(rhs),rhsMax =  -3.85455556362047E-15  7.84601870723671E-02
 cg2d: Sum(rhs),rhsMax =  -4.01761957036229E-15  7.75674577564787E-02
 cg2d: Sum(rhs),rhsMax =  -3.94823063132321E-15  7.67092215558528E-02
 cg2d: Sum(rhs),rhsMax =  -4.38538094726937E-15  7.58900025361736E-02
 cg2d: Sum(rhs),rhsMax =  -4.42354486374086E-15  7.51083180795531E-02
 cg2d: Sum(rhs),rhsMax =  -4.12864187282480E-15  7.43574792211805E-02
 cg2d: Sum(rhs),rhsMax =  -4.13558076672871E-15  7.36271645255159E-02
 cg2d: Sum(rhs),rhsMax =  -3.87884169228414E-15  7.29055020698708E-02
 cg2d: Sum(rhs),rhsMax =  -4.48252546192407E-15  7.21813232363735E-02
 --> objf_test(bi,bj)   = -0.849803504936062E+00
 --> objf_tracer(bi,bj) =  0.000000000000000E+00
 --> objf_atl(bi,bj)    =  0.000000000000000E+00
  local fc = -0.849803504936062E+00
 global fc = -0.849803504936062E+00
 ph-check fcpertplus =  -0.849803505
(PID.TID 0000.0001)  MDSREADFIELD: opening file: xx_depth.0000000000.001.001.data
 ph-check fcpertminus =  -0.849803598
(PID.TID 0000.0001)  MDSREADFIELD: opening file: xx_depth.0000000000.001.001.data
(PID.TID 0000.0001)  MDSREADFIELD: opening global file: walls.bigRidge
(PID.TID 0000.0001) // =======================================================
(PID.TID 0000.0001) // Field Bottom depths (ini_depths) at iteration          1
(PID.TID 0000.0001) // CMIN =         -5.000000000000000E+03
(PID.TID 0000.0001) // CMAX =         -2.000000000000000E+03
(PID.TID 0000.0001) // CINT =          1.111111111111111E+02
(PID.TID 0000.0001) // SYMBOLS (CMIN->CMAX): -abcdefghijklmnopqrstuvwxyz+
(PID.TID 0000.0001) //                  0.0: .
(PID.TID 0000.0001) // RANGE I (Lo:Hi:Step):(  -1:   7:   1)
(PID.TID 0000.0001) // RANGE J (Lo:Hi:Step):(   7:  -1:  -1)
(PID.TID 0000.0001) // RANGE K (Lo:Hi:Step):(   1:   1:   1)
(PID.TID 0000.0001) // =======================================================
(PID.TID 0000.0001) K =   1
(PID.TID 0000.0001) //
(PID.TID 0000.0001) // |--J--|*01234567
(PID.TID 0000.0001) //      7 ----+----
(PID.TID 0000.0001) //      6 .........
(PID.TID 0000.0001) //      5 ----+----
(PID.TID 0000.0001) //      4 ----+----
(PID.TID 0000.0001) //      3 ----+----
(PID.TID 0000.0001) //      2 ----+----
(PID.TID 0000.0001) //      1 .........
(PID.TID 0000.0001) //      0 ----+----
(PID.TID 0000.0001) //     -1 ----+----
(PID.TID 0000.0001) // =======================================================
(PID.TID 0000.0001) // END OF FIELD                                          =
(PID.TID 0000.0001) // =======================================================
(PID.TID 0000.0001) 
(PID.TID 0000.0001) // =======================================================
(PID.TID 0000.0001) // Field Model R_low (ini_masks_etc) at iteration          1
(PID.TID 0000.0001) // CMIN =         -5.000000000000000E+03
(PID.TID 0000.0001) // CMAX =         -2.000000000000000E+03
(PID.TID 0000.0001) // CINT =          1.111111111111111E+02
(PID.TID 0000.0001) // SYMBOLS (CMIN->CMAX): -abcdefghijklmnopqrstuvwxyz+
(PID.TID 0000.0001) //                  0.0: .
(PID.TID 0000.0001) // RANGE I (Lo:Hi:Step):(  -1:   7:   1)
(PID.TID 0000.0001) // RANGE J (Lo:Hi:Step):(   7:  -1:  -1)
(PID.TID 0000.0001) // RANGE K (Lo:Hi:Step):(   1:   1:   1)
(PID.TID 0000.0001) // =======================================================
(PID.TID 0000.0001) K =   1
(PID.TID 0000.0001) //
(PID.TID 0000.0001) // |--J--|*01234567
(PID.TID 0000.0001) //      7 ----+----
(PID.TID 0000.0001) //      6 .........
(PID.TID 0000.0001) //      5 ----+----
(PID.TID 0000.0001) //      4 ----+----
(PID.TID 0000.0001) //      3 ----+----
(PID.TID 0000.0001) //      2 ----+----
(PID.TID 0000.0001) //      1 .........
(PID.TID 0000.0001) //      0 ----+----
(PID.TID 0000.0001) //     -1 ----+----
(PID.TID 0000.0001) // =======================================================
(PID.TID 0000.0001) // END OF FIELD                                          =
(PID.TID 0000.0001) // =======================================================
(PID.TID 0000.0001) 
(PID.TID 0000.0001) // =======================================================
(PID.TID 0000.0001) // Field Model Ro_surf (ini_masks_etc) at iteration          1
(PID.TID 0000.0001) // CMIN =          2.273736754432321E-13
(PID.TID 0000.0001) // CMAX =          2.273736754432321E-13
(PID.TID 0000.0001) // CINT =          0.000000000000000E+00
(PID.TID 0000.0001) // SYMBOLS (CMIN->CMAX): -abcdefghijklmnopqrstuvwxyz+
(PID.TID 0000.0001) //                  0.0: .
(PID.TID 0000.0001) // RANGE I (Lo:Hi:Step):(  -1:   7:   1)
(PID.TID 0000.0001) // RANGE J (Lo:Hi:Step):(   7:  -1:  -1)
(PID.TID 0000.0001) // RANGE K (Lo:Hi:Step):(   1:   1:   1)
(PID.TID 0000.0001) // =======================================================
(PID.TID 0000.0001) // =======================================================
(PID.TID 0000.0001) // END OF FIELD                                          =
(PID.TID 0000.0001) // =======================================================
(PID.TID 0000.0001) 
(PID.TID 0000.0001) // =======================================================
(PID.TID 0000.0001) // Field hFacC at iteration          1
(PID.TID 0000.0001) // CMIN =          1.000000000000000E+00
(PID.TID 0000.0001) // CMAX =          1.000000000000000E+00
(PID.TID 0000.0001) // CINT =          0.000000000000000E+00
(PID.TID 0000.0001) // SYMBOLS (CMIN->CMAX): -abcdefghijklmnopqrstuvwxyz+
(PID.TID 0000.0001) //                  0.0: .
(PID.TID 0000.0001) // RANGE I (Lo:Hi:Step):(  -1:   7:   1)
(PID.TID 0000.0001) // RANGE J (Lo:Hi:Step):(   7:  -1:  -1)
(PID.TID 0000.0001) // RANGE K (Lo:Hi:Step):(   1:   1:   1)
(PID.TID 0000.0001) // =======================================================
(PID.TID 0000.0001) // =======================================================
(PID.TID 0000.0001) // END OF FIELD                                          =
(PID.TID 0000.0001) // =======================================================
(PID.TID 0000.0001) 
(PID.TID 0000.0001) // =======================================================
(PID.TID 0000.0001) // Field hFacW at iteration          1
(PID.TID 0000.0001) // CMIN =          1.000000000000000E+00
(PID.TID 0000.0001) // CMAX =          1.000000000000000E+00
(PID.TID 0000.0001) // CINT =          0.000000000000000E+00
(PID.TID 0000.0001) // SYMBOLS (CMIN->CMAX): -abcdefghijklmnopqrstuvwxyz+
(PID.TID 0000.0001) //                  0.0: .
(PID.TID 0000.0001) // RANGE I (Lo:Hi:Step):(  -1:   7:   1)
(PID.TID 0000.0001) // RANGE J (Lo:Hi:Step):(   7:  -1:  -1)
(PID.TID 0000.0001) // RANGE K (Lo:Hi:Step):(   1:   1:   1)
(PID.TID 0000.0001) // =======================================================
(PID.TID 0000.0001) // =======================================================
(PID.TID 0000.0001) // END OF FIELD                                          =
(PID.TID 0000.0001) // =======================================================
(PID.TID 0000.0001) 
(PID.TID 0000.0001) // =======================================================
(PID.TID 0000.0001) // Field hFacS at iteration          1
(PID.TID 0000.0001) // CMIN =          1.000000000000000E+00
(PID.TID 0000.0001) // CMAX =          1.000000000000000E+00
(PID.TID 0000.0001) // CINT =          0.000000000000000E+00
(PID.TID 0000.0001) // SYMBOLS (CMIN->CMAX): -abcdefghijklmnopqrstuvwxyz+
(PID.TID 0000.0001) //                  0.0: .
(PID.TID 0000.0001) // RANGE I (Lo:Hi:Step):(  -1:   7:   1)
(PID.TID 0000.0001) // RANGE J (Lo:Hi:Step):(   7:  -1:  -1)
(PID.TID 0000.0001) // RANGE K (Lo:Hi:Step):(   1:   1:   1)
(PID.TID 0000.0001) // =======================================================
(PID.TID 0000.0001) // =======================================================
(PID.TID 0000.0001) // END OF FIELD                                          =
(PID.TID 0000.0001) // =======================================================
(PID.TID 0000.0001) 
(PID.TID 0000.0001) %MON surfExpanfCori_max           =  -1.0735540000000E-04
(PID.TID 0000.0001) %MON surfExpanfCori_min           =  -1.1783060000000E-04
(PID.TID 0000.0001) %MON surfExpanfCori_mean          =  -1.1259300000000E-04
(PID.TID 0000.0001) %MON surfExpanfCori_sd            =   3.7035424771427E-06
(PID.TID 0000.0001) %MON surfExpanfCoriG_max          =  -1.0866480000000E-04
(PID.TID 0000.0001) %MON surfExpanfCoriG_min          =  -1.1914000000000E-04
(PID.TID 0000.0001) %MON surfExpanfCoriG_mean         =  -1.1390240000000E-04
(PID.TID 0000.0001) %MON surfExpanfCoriG_sd           =   3.7035424771427E-06
(PID.TID 0000.0001) %MON surfExpanfCoriCos_max        =   0.0000000000000E+00
(PID.TID 0000.0001) %MON surfExpanfCoriCos_min        =   0.0000000000000E+00
(PID.TID 0000.0001) %MON surfExpanfCoriCos_mean       =   0.0000000000000E+00
(PID.TID 0000.0001) %MON surfExpanfCoriCos_sd         =   0.0000000000000E+00
(PID.TID 0000.0001) INI_CG2D: CG2D normalisation factor =  1.9999999999999996E-04
(PID.TID 0000.0001) 
                     ctrl_depth_ini: ctrl update R_low,
                                     adding the control vector.
(PID.TID 0000.0001)  MDSREADFIELD: opening file: xx_depth.0000000000.001.001.data
(PID.TID 0000.0001) // =======================================================
(PID.TID 0000.0001) // Field Model Ro_surf (update_masks_etc) at iteration          1
(PID.TID 0000.0001) // CMIN =          2.273736754432321E-13
(PID.TID 0000.0001) // CMAX =          2.273736754432321E-13
(PID.TID 0000.0001) // CINT =          0.000000000000000E+00
(PID.TID 0000.0001) // SYMBOLS (CMIN->CMAX): -abcdefghijklmnopqrstuvwxyz+
(PID.TID 0000.0001) //                  0.0: .
(PID.TID 0000.0001) // RANGE I (Lo:Hi:Step):(  -1:   7:   1)
(PID.TID 0000.0001) // RANGE J (Lo:Hi:Step):(   7:  -1:  -1)
(PID.TID 0000.0001) // RANGE K (Lo:Hi:Step):(   1:   1:   1)
(PID.TID 0000.0001) // =======================================================
(PID.TID 0000.0001) // =======================================================
(PID.TID 0000.0001) // END OF FIELD                                          =
(PID.TID 0000.0001) // =======================================================
(PID.TID 0000.0001) 
(PID.TID 0000.0001) // =======================================================
(PID.TID 0000.0001) // Field hFacC at iteration          1
(PID.TID 0000.0001) // CMIN =          1.000000000000000E+00
(PID.TID 0000.0001) // CMAX =          1.000000000000000E+00
(PID.TID 0000.0001) // CINT =          0.000000000000000E+00
(PID.TID 0000.0001) // SYMBOLS (CMIN->CMAX): -abcdefghijklmnopqrstuvwxyz+
(PID.TID 0000.0001) //                  0.0: .
(PID.TID 0000.0001) // RANGE I (Lo:Hi:Step):(  -1:   7:   1)
(PID.TID 0000.0001) // RANGE J (Lo:Hi:Step):(   7:  -1:  -1)
(PID.TID 0000.0001) // RANGE K (Lo:Hi:Step):(   1:   1:   1)
(PID.TID 0000.0001) // =======================================================
(PID.TID 0000.0001) // =======================================================
(PID.TID 0000.0001) // END OF FIELD                                          =
(PID.TID 0000.0001) // =======================================================
(PID.TID 0000.0001) 
(PID.TID 0000.0001) // =======================================================
(PID.TID 0000.0001) // Field hFacW at iteration          1
(PID.TID 0000.0001) // CMIN =          1.000000000000000E+00
(PID.TID 0000.0001) // CMAX =          1.000000000000000E+00
(PID.TID 0000.0001) // CINT =          0.000000000000000E+00
(PID.TID 0000.0001) // SYMBOLS (CMIN->CMAX): -abcdefghijklmnopqrstuvwxyz+
(PID.TID 0000.0001) //                  0.0: .
(PID.TID 0000.0001) // RANGE I (Lo:Hi:Step):(  -1:   7:   1)
(PID.TID 0000.0001) // RANGE J (Lo:Hi:Step):(   7:  -1:  -1)
(PID.TID 0000.0001) // RANGE K (Lo:Hi:Step):(   1:   1:   1)
(PID.TID 0000.0001) // =======================================================
(PID.TID 0000.0001) // =======================================================
(PID.TID 0000.0001) // END OF FIELD                                          =
(PID.TID 0000.0001) // =======================================================
(PID.TID 0000.0001) 
(PID.TID 0000.0001) // =======================================================
(PID.TID 0000.0001) // Field hFacS at iteration          1
(PID.TID 0000.0001) // CMIN =          1.000000000000000E+00
(PID.TID 0000.0001) // CMAX =          1.000000000000000E+00
(PID.TID 0000.0001) // CINT =          0.000000000000000E+00
(PID.TID 0000.0001) // SYMBOLS (CMIN->CMAX): -abcdefghijklmnopqrstuvwxyz+
(PID.TID 0000.0001) //                  0.0: .
(PID.TID 0000.0001) // RANGE I (Lo:Hi:Step):(  -1:   7:   1)
(PID.TID 0000.0001) // RANGE J (Lo:Hi:Step):(   7:  -1:  -1)
(PID.TID 0000.0001) // RANGE K (Lo:Hi:Step):(   1:   1:   1)
(PID.TID 0000.0001) // =======================================================
(PID.TID 0000.0001) // =======================================================
(PID.TID 0000.0001) // END OF FIELD                                          =
(PID.TID 0000.0001) // =======================================================
(PID.TID 0000.0001) 
(PID.TID 0000.0001) // =======================================================
(PID.TID 0000.0001) // Field Initial Temperature at iteration          1
(PID.TID 0000.0001) // CMIN =          4.000000000000000E+00
(PID.TID 0000.0001) // CMAX =          4.000000000000000E+00
(PID.TID 0000.0001) // CINT =          0.000000000000000E+00
(PID.TID 0000.0001) // SYMBOLS (CMIN->CMAX): -abcdefghijklmnopqrstuvwxyz+
(PID.TID 0000.0001) //                  0.0: .
(PID.TID 0000.0001) // RANGE I (Lo:Hi:Step):(   1:   5:   1)
(PID.TID 0000.0001) // RANGE J (Lo:Hi:Step):(   5:   1:  -1)
(PID.TID 0000.0001) // RANGE K (Lo:Hi:Step):(   1:   1:   1)
(PID.TID 0000.0001) // =======================================================
(PID.TID 0000.0001) // =======================================================
(PID.TID 0000.0001) // END OF FIELD                                          =
(PID.TID 0000.0001) // =======================================================
(PID.TID 0000.0001) 
(PID.TID 0000.0001) // =======================================================
(PID.TID 0000.0001) // Field Initial Salinity at iteration          1
(PID.TID 0000.0001) // CMIN =          3.500000000000000E+01
(PID.TID 0000.0001) // CMAX =          3.500000000000000E+01
(PID.TID 0000.0001) // CINT =          0.000000000000000E+00
(PID.TID 0000.0001) // SYMBOLS (CMIN->CMAX): -abcdefghijklmnopqrstuvwxyz+
(PID.TID 0000.0001) //                  0.0: .
(PID.TID 0000.0001) // RANGE I (Lo:Hi:Step):(   1:   5:   1)
(PID.TID 0000.0001) // RANGE J (Lo:Hi:Step):(   5:   1:  -1)
(PID.TID 0000.0001) // RANGE K (Lo:Hi:Step):(   1:   1:   1)
(PID.TID 0000.0001) // =======================================================
(PID.TID 0000.0001) // =======================================================
(PID.TID 0000.0001) // END OF FIELD                                          =
(PID.TID 0000.0001) // =======================================================
(PID.TID 0000.0001) 
(PID.TID 0000.0001) Start initial hydrostatic pressure computation
(PID.TID 0000.0001) Pressure is predetermined for buoyancyRelation OCEANIC
(PID.TID 0000.0001) 
(PID.TID 0000.0001)  MDSREADFIELD: opening global file: windx.sin_y
(PID.TID 0000.0001) // =======================================================
(PID.TID 0000.0001) // Model current state
(PID.TID 0000.0001) // =======================================================
(PID.TID 0000.0001) 
 cg2d: Sum(rhs),rhsMax =   0.00000000000000E+00  0.00000000000000E+00
 cg2d: Sum(rhs),rhsMax =   4.68375338513738E-16  2.62483626325265E-03
 cg2d: Sum(rhs),rhsMax =   1.49186218934005E-16  5.13362633347282E-03
 cg2d: Sum(rhs),rhsMax =  -4.20670442924376E-16  7.16168457690005E-03
 cg2d: Sum(rhs),rhsMax =  -7.34655392076178E-16  9.29466753440048E-03
 cg2d: Sum(rhs),rhsMax =  -1.16573417585641E-15  1.15304356465857E-02
 cg2d: Sum(rhs),rhsMax =  -1.51007678583781E-15  1.37809801977409E-02
 cg2d: Sum(rhs),rhsMax =  -1.34961486430996E-15  1.60011247102183E-02
 cg2d: Sum(rhs),rhsMax =  -1.59594559789866E-15  1.82027337806780E-02
 cg2d: Sum(rhs),rhsMax =  -1.17961196366423E-15  2.04493560735719E-02
 cg2d: Sum(rhs),rhsMax =  -1.16573417585641E-15  2.25706027598676E-02
 cg2d: Sum(rhs),rhsMax =  -1.02695629777827E-15  2.45301657056793E-02
 cg2d: Sum(rhs),rhsMax =  -1.42941214420489E-15  2.63097944355641E-02
 cg2d: Sum(rhs),rhsMax =  -1.33226762955019E-15  2.79110497340910E-02
 cg2d: Sum(rhs),rhsMax =  -7.07767178198537E-16  2.93538602708503E-02
 cg2d: Sum(rhs),rhsMax =  -4.64905891561784E-16  3.06720439688774E-02
 cg2d: Sum(rhs),rhsMax =  -1.47798440153224E-15  3.19067817488589E-02
 cg2d: Sum(rhs),rhsMax =  -8.95117313604032E-16  3.30992668848011E-02
 cg2d: Sum(rhs),rhsMax =  -4.85722573273506E-16  3.42837434399235E-02
 cg2d: Sum(rhs),rhsMax =   1.38777878078145E-16  3.54819652693668E-02
 cg2d: Sum(rhs),rhsMax =   6.93889390390723E-17  3.66998060718129E-02
 cg2d: Sum(rhs),rhsMax =   4.09394740330526E-16  3.79264048100691E-02
 cg2d: Sum(rhs),rhsMax =   6.45317133063372E-16  3.91358861308176E-02
 cg2d: Sum(rhs),rhsMax =   7.21644966006352E-16  4.02913642494424E-02
 cg2d: Sum(rhs),rhsMax =   4.85722573273506E-16  4.13506298211675E-02
 cg2d: Sum(rhs),rhsMax =   4.30211422042248E-16  4.22726610540009E-02
 cg2d: Sum(rhs),rhsMax =   6.66133814775094E-16  4.30239439448397E-02
 cg2d: Sum(rhs),rhsMax =   6.52256026967279E-16  4.35835866796920E-02
 cg2d: Sum(rhs),rhsMax =   1.15185638804860E-15  4.39463983461035E-02
 cg2d: Sum(rhs),rhsMax =   9.71445146547012E-16  4.41234520006919E-02
 cg2d: Sum(rhs),rhsMax =   4.02455846426619E-16  4.41400968050533E-02
 cg2d: Sum(rhs),rhsMax =   3.60822483003176E-16  4.40318247572489E-02
 cg2d: Sum(rhs),rhsMax =   6.66133814775094E-16  4.38387404153255E-02
 cg2d: Sum(rhs),rhsMax =   5.82867087928207E-16  4.54379558990747E-02
 cg2d: Sum(rhs),rhsMax =   5.27355936696949E-16  4.77259340327890E-02
 cg2d: Sum(rhs),rhsMax =  -4.99600361081320E-16  4.99949941880160E-02
 cg2d: Sum(rhs),rhsMax =  -6.24500451351651E-16  5.22073345529461E-02
 cg2d: Sum(rhs),rhsMax =  -4.71844785465692E-16  5.43317154515261E-02
 cg2d: Sum(rhs),rhsMax =  -1.66533453693773E-16  5.63476434068966E-02
 cg2d: Sum(rhs),rhsMax =   3.88578058618805E-16  5.82478247528920E-02
 cg2d: Sum(rhs),rhsMax =   4.99600361081320E-16  6.00385227733602E-02
 cg2d: Sum(rhs),rhsMax =   1.94289029309402E-16  6.17377929699556E-02
 cg2d: Sum(rhs),rhsMax =   0.00000000000000E+00  6.33719183709186E-02
 cg2d: Sum(rhs),rhsMax =  -1.94289029309402E-16  6.49706562771001E-02
 cg2d: Sum(rhs),rhsMax =  -6.10622663543836E-16  6.65620856489428E-02
 cg2d: Sum(rhs),rhsMax =  -8.04911692853238E-16  6.81678813996103E-02
 cg2d: Sum(rhs),rhsMax =  -3.60822483003176E-16  6.97997398446219E-02
 cg2d: Sum(rhs),rhsMax =  -3.88578058618805E-16  7.14574670180197E-02
 cg2d: Sum(rhs),rhsMax =  -7.21644966006352E-16  7.31289631173017E-02
 cg2d: Sum(rhs),rhsMax =  -3.60822483003176E-16  7.47920403350486E-02
 cg2d: Sum(rhs),rhsMax =  -1.05471187339390E-15  7.64177408207469E-02
 cg2d: Sum(rhs),rhsMax =  -1.36002320516582E-15  7.79746103057444E-02
 cg2d: Sum(rhs),rhsMax =  -1.27675647831893E-15  7.94332553298215E-02
 cg2d: Sum(rhs),rhsMax =  -1.02695629777827E-15  8.07704832200919E-02
 cg2d: Sum(rhs),rhsMax =  -1.13797860024079E-15  8.19723988564174E-02
 cg2d: Sum(rhs),rhsMax =  -7.77156117237610E-16  8.30360025662317E-02
 cg2d: Sum(rhs),rhsMax =  -6.24500451351651E-16  8.39690755988669E-02
 cg2d: Sum(rhs),rhsMax =  -5.13478148889135E-16  8.47884154831907E-02
 cg2d: Sum(rhs),rhsMax =  -5.55111512312578E-16  8.55167463774943E-02
 cg2d: Sum(rhs),rhsMax =  -6.38378239159465E-16  8.61788333160925E-02
 cg2d: Sum(rhs),rhsMax =  -3.05311331771918E-16  8.67974394206276E-02
 cg2d: Sum(rhs),rhsMax =  -4.44089209850063E-16  8.73897661158711E-02
 cg2d: Sum(rhs),rhsMax =  -5.68989300120393E-16  8.79649139911193E-02
 cg2d: Sum(rhs),rhsMax =  -4.85722573273506E-16  8.85227199745491E-02
 cg2d: Sum(rhs),rhsMax =  -9.43689570931383E-16  8.90540995360884E-02
 cg2d: Sum(rhs),rhsMax =  -9.71445146547012E-16  8.95427881878311E-02
 cg2d: Sum(rhs),rhsMax =  -1.13797860024079E-15  8.99681688105484E-02
 cg2d: Sum(rhs),rhsMax =  -1.39471767468535E-15  9.03087176918997E-02
 cg2d: Sum(rhs),rhsMax =  -1.33920652345410E-15  9.05455216418503E-02
 cg2d: Sum(rhs),rhsMax =  -1.30451205393456E-15  9.06653209010502E-02
 cg2d: Sum(rhs),rhsMax =  -1.00613961606655E-15  9.06626171320963E-02
 cg2d: Sum(rhs),rhsMax =  -7.56339435525888E-16  9.05405404678824E-02
 cg2d: Sum(rhs),rhsMax =  -4.09394740330526E-16  9.03103709153252E-02
 cg2d: Sum(rhs),rhsMax =  -6.62664367823140E-16  8.99898250471352E-02
 cg2d: Sum(rhs),rhsMax =  -3.90312782094782E-16  8.96004128994980E-02
 cg2d: Sum(rhs),rhsMax =  -4.71627945031194E-16  8.91643097385013E-02
 cg2d: Sum(rhs),rhsMax =  -7.09501901674514E-16  8.87012504250282E-02
 cg2d: Sum(rhs),rhsMax =  -1.09981468376930E-15  8.82259326538170E-02
 cg2d: Sum(rhs),rhsMax =  -1.17961196366423E-15  8.77463169159124E-02
 cg2d: Sum(rhs),rhsMax =  -8.95117313604032E-16  8.72630558023596E-02
 cg2d: Sum(rhs),rhsMax =  -9.74914593498966E-16  8.67701009669600E-02
 cg2d: Sum(rhs),rhsMax =  -7.70217223333702E-16  8.62563524551028E-02
 cg2d: Sum(rhs),rhsMax =  -6.76542155630955E-16  8.57080593376457E-02
 cg2d: Sum(rhs),rhsMax =  -7.63278329429795E-16  8.51115740681237E-02
 cg2d: Sum(rhs),rhsMax =  -1.16920362280837E-15  8.44560194767620E-02
 cg2d: Sum(rhs),rhsMax =  -1.12757025938492E-15  8.37354518153711E-02
 cg2d: Sum(rhs),rhsMax =  -1.13277442981286E-15  8.29501913274731E-02
 cg2d: Sum(rhs),rhsMax =  -1.35004854517895E-15  8.21071296273929E-02
 cg2d: Sum(rhs),rhsMax =  -1.35048222604794E-15  8.12189889010494E-02
 cg2d: Sum(rhs),rhsMax =  -1.09981468376930E-15  8.03026747610441E-02
 cg2d: Sum(rhs),rhsMax =  -8.81239525796218E-16  7.93770051697094E-02
 cg2d: Sum(rhs),rhsMax =  -1.21777588013572E-15  7.84601894384365E-02
 cg2d: Sum(rhs),rhsMax =  -9.80118763926896E-16  7.75674600936571E-02
 cg2d: Sum(rhs),rhsMax =  -7.45931094670027E-16  7.67092238577153E-02
 cg2d: Sum(rhs),rhsMax =  -1.12757025938492E-15  7.58900047968999E-02
 cg2d: Sum(rhs),rhsMax =  -1.24206200879939E-15  7.51083202937373E-02
 cg2d: Sum(rhs),rhsMax =  -1.27675647831893E-15  7.43574813835998E-02
 cg2d: Sum(rhs),rhsMax =  -1.20042864537595E-15  7.36271666309019E-02
 cg2d: Sum(rhs),rhsMax =  -1.08246744900953E-15  7.29055041127186E-02
 cg2d: Sum(rhs),rhsMax =  -7.84095011141517E-16  7.21813252108248E-02
 --> objf_test(bi,bj)   = -0.849803690951757E+00
 --> objf_tracer(bi,bj) =  0.000000000000000E+00
 --> objf_atl(bi,bj)    =  0.000000000000000E+00
  local fc = -0.849803690951757E+00
 global fc = -0.849803690951757E+00
(PID.TID 0000.0001)  MDSREADFIELD: opening file: xx_depth.0000000000.001.001.data
 grad-res -------------------------------
 grad-res     0    8    3    3    1   -.849803598E+00 -.849803505E+00 -.849803691E+00
 grad-res     0    8    8    8   20   0.930034728E-03 0.930078475E-03 -.470382508E-04
(PID.TID 0000.0001)       precision_grdchk_result ADM    -8.49803597943908E-01     9.30034728140655E-04
 ph-grd  ierr ---------------------------
 ph-grd  ierr =  0, icomp =  8, ichknum =  8
(PID.TID 0000.0001)  MDSREADFIELD: opening file: adxx_depth.0000000000.001.001.data
(PID.TID 0000.0001)  MDSREADFIELD: opening file: xx_depth.0000000000.001.001.data
(PID.TID 0000.0001)  MDSREADFIELD: opening global file: walls.bigRidge
(PID.TID 0000.0001) // =======================================================
(PID.TID 0000.0001) // Field Bottom depths (ini_depths) at iteration          1
(PID.TID 0000.0001) // CMIN =         -5.000000000000000E+03
(PID.TID 0000.0001) // CMAX =         -2.000000000000000E+03
(PID.TID 0000.0001) // CINT =          1.111111111111111E+02
(PID.TID 0000.0001) // SYMBOLS (CMIN->CMAX): -abcdefghijklmnopqrstuvwxyz+
(PID.TID 0000.0001) //                  0.0: .
(PID.TID 0000.0001) // RANGE I (Lo:Hi:Step):(  -1:   7:   1)
(PID.TID 0000.0001) // RANGE J (Lo:Hi:Step):(   7:  -1:  -1)
(PID.TID 0000.0001) // RANGE K (Lo:Hi:Step):(   1:   1:   1)
(PID.TID 0000.0001) // =======================================================
(PID.TID 0000.0001) K =   1
(PID.TID 0000.0001) //
(PID.TID 0000.0001) // |--J--|*01234567
(PID.TID 0000.0001) //      7 ----+----
(PID.TID 0000.0001) //      6 .........
(PID.TID 0000.0001) //      5 ----+----
(PID.TID 0000.0001) //      4 ----+----
(PID.TID 0000.0001) //      3 ----+----
(PID.TID 0000.0001) //      2 ----+----
(PID.TID 0000.0001) //      1 .........
(PID.TID 0000.0001) //      0 ----+----
(PID.TID 0000.0001) //     -1 ----+----
(PID.TID 0000.0001) // =======================================================
(PID.TID 0000.0001) // END OF FIELD                                          =
(PID.TID 0000.0001) // =======================================================
(PID.TID 0000.0001) 
(PID.TID 0000.0001) // =======================================================
(PID.TID 0000.0001) // Field Model R_low (ini_masks_etc) at iteration          1
(PID.TID 0000.0001) // CMIN =         -5.000000000000000E+03
(PID.TID 0000.0001) // CMAX =         -2.000000000000000E+03
(PID.TID 0000.0001) // CINT =          1.111111111111111E+02
(PID.TID 0000.0001) // SYMBOLS (CMIN->CMAX): -abcdefghijklmnopqrstuvwxyz+
(PID.TID 0000.0001) //                  0.0: .
(PID.TID 0000.0001) // RANGE I (Lo:Hi:Step):(  -1:   7:   1)
(PID.TID 0000.0001) // RANGE J (Lo:Hi:Step):(   7:  -1:  -1)
(PID.TID 0000.0001) // RANGE K (Lo:Hi:Step):(   1:   1:   1)
(PID.TID 0000.0001) // =======================================================
(PID.TID 0000.0001) K =   1
(PID.TID 0000.0001) //
(PID.TID 0000.0001) // |--J--|*01234567
(PID.TID 0000.0001) //      7 ----+----
(PID.TID 0000.0001) //      6 .........
(PID.TID 0000.0001) //      5 ----+----
(PID.TID 0000.0001) //      4 ----+----
(PID.TID 0000.0001) //      3 ----+----
(PID.TID 0000.0001) //      2 ----+----
(PID.TID 0000.0001) //      1 .........
(PID.TID 0000.0001) //      0 ----+----
(PID.TID 0000.0001) //     -1 ----+----
(PID.TID 0000.0001) // =======================================================
(PID.TID 0000.0001) // END OF FIELD                                          =
(PID.TID 0000.0001) // =======================================================
(PID.TID 0000.0001) 
(PID.TID 0000.0001) // =======================================================
(PID.TID 0000.0001) // Field Model Ro_surf (ini_masks_etc) at iteration          1
(PID.TID 0000.0001) // CMIN =          2.273736754432321E-13
(PID.TID 0000.0001) // CMAX =          2.273736754432321E-13
(PID.TID 0000.0001) // CINT =          0.000000000000000E+00
(PID.TID 0000.0001) // SYMBOLS (CMIN->CMAX): -abcdefghijklmnopqrstuvwxyz+
(PID.TID 0000.0001) //                  0.0: .
(PID.TID 0000.0001) // RANGE I (Lo:Hi:Step):(  -1:   7:   1)
(PID.TID 0000.0001) // RANGE J (Lo:Hi:Step):(   7:  -1:  -1)
(PID.TID 0000.0001) // RANGE K (Lo:Hi:Step):(   1:   1:   1)
(PID.TID 0000.0001) // =======================================================
(PID.TID 0000.0001) // =======================================================
(PID.TID 0000.0001) // END OF FIELD                                          =
(PID.TID 0000.0001) // =======================================================
(PID.TID 0000.0001) 
(PID.TID 0000.0001) // =======================================================
(PID.TID 0000.0001) // Field hFacC at iteration          1
(PID.TID 0000.0001) // CMIN =          1.000000000000000E+00
(PID.TID 0000.0001) // CMAX =          1.000000000000000E+00
(PID.TID 0000.0001) // CINT =          0.000000000000000E+00
(PID.TID 0000.0001) // SYMBOLS (CMIN->CMAX): -abcdefghijklmnopqrstuvwxyz+
(PID.TID 0000.0001) //                  0.0: .
(PID.TID 0000.0001) // RANGE I (Lo:Hi:Step):(  -1:   7:   1)
(PID.TID 0000.0001) // RANGE J (Lo:Hi:Step):(   7:  -1:  -1)
(PID.TID 0000.0001) // RANGE K (Lo:Hi:Step):(   1:   1:   1)
(PID.TID 0000.0001) // =======================================================
(PID.TID 0000.0001) // =======================================================
(PID.TID 0000.0001) // END OF FIELD                                          =
(PID.TID 0000.0001) // =======================================================
(PID.TID 0000.0001) 
(PID.TID 0000.0001) // =======================================================
(PID.TID 0000.0001) // Field hFacW at iteration          1
(PID.TID 0000.0001) // CMIN =          1.000000000000000E+00
(PID.TID 0000.0001) // CMAX =          1.000000000000000E+00
(PID.TID 0000.0001) // CINT =          0.000000000000000E+00
(PID.TID 0000.0001) // SYMBOLS (CMIN->CMAX): -abcdefghijklmnopqrstuvwxyz+
(PID.TID 0000.0001) //                  0.0: .
(PID.TID 0000.0001) // RANGE I (Lo:Hi:Step):(  -1:   7:   1)
(PID.TID 0000.0001) // RANGE J (Lo:Hi:Step):(   7:  -1:  -1)
(PID.TID 0000.0001) // RANGE K (Lo:Hi:Step):(   1:   1:   1)
(PID.TID 0000.0001) // =======================================================
(PID.TID 0000.0001) // =======================================================
(PID.TID 0000.0001) // END OF FIELD                                          =
(PID.TID 0000.0001) // =======================================================
(PID.TID 0000.0001) 
(PID.TID 0000.0001) // =======================================================
(PID.TID 0000.0001) // Field hFacS at iteration          1
(PID.TID 0000.0001) // CMIN =          1.000000000000000E+00
(PID.TID 0000.0001) // CMAX =          1.000000000000000E+00
(PID.TID 0000.0001) // CINT =          0.000000000000000E+00
(PID.TID 0000.0001) // SYMBOLS (CMIN->CMAX): -abcdefghijklmnopqrstuvwxyz+
(PID.TID 0000.0001) //                  0.0: .
(PID.TID 0000.0001) // RANGE I (Lo:Hi:Step):(  -1:   7:   1)
(PID.TID 0000.0001) // RANGE J (Lo:Hi:Step):(   7:  -1:  -1)
(PID.TID 0000.0001) // RANGE K (Lo:Hi:Step):(   1:   1:   1)
(PID.TID 0000.0001) // =======================================================
(PID.TID 0000.0001) // =======================================================
(PID.TID 0000.0001) // END OF FIELD                                          =
(PID.TID 0000.0001) // =======================================================
(PID.TID 0000.0001) 
(PID.TID 0000.0001) %MON surfExpanfCori_max           =  -1.0735540000000E-04
(PID.TID 0000.0001) %MON surfExpanfCori_min           =  -1.1783060000000E-04
(PID.TID 0000.0001) %MON surfExpanfCori_mean          =  -1.1259300000000E-04
(PID.TID 0000.0001) %MON surfExpanfCori_sd            =   3.7035424771427E-06
(PID.TID 0000.0001) %MON surfExpanfCoriG_max          =  -1.0866480000000E-04
(PID.TID 0000.0001) %MON surfExpanfCoriG_min          =  -1.1914000000000E-04
(PID.TID 0000.0001) %MON surfExpanfCoriG_mean         =  -1.1390240000000E-04
(PID.TID 0000.0001) %MON surfExpanfCoriG_sd           =   3.7035424771427E-06
(PID.TID 0000.0001) %MON surfExpanfCoriCos_max        =   0.0000000000000E+00
(PID.TID 0000.0001) %MON surfExpanfCoriCos_min        =   0.0000000000000E+00
(PID.TID 0000.0001) %MON surfExpanfCoriCos_mean       =   0.0000000000000E+00
(PID.TID 0000.0001) %MON surfExpanfCoriCos_sd         =   0.0000000000000E+00
(PID.TID 0000.0001) INI_CG2D: CG2D normalisation factor =  1.9999999999999996E-04
(PID.TID 0000.0001) 
                     ctrl_depth_ini: ctrl update R_low,
                                     adding the control vector.
(PID.TID 0000.0001)  MDSREADFIELD: opening file: xx_depth.0000000000.001.001.data
(PID.TID 0000.0001) // =======================================================
(PID.TID 0000.0001) // Field Model Ro_surf (update_masks_etc) at iteration          1
(PID.TID 0000.0001) // CMIN =          2.273736754432321E-13
(PID.TID 0000.0001) // CMAX =          2.273736754432321E-13
(PID.TID 0000.0001) // CINT =          0.000000000000000E+00
(PID.TID 0000.0001) // SYMBOLS (CMIN->CMAX): -abcdefghijklmnopqrstuvwxyz+
(PID.TID 0000.0001) //                  0.0: .
(PID.TID 0000.0001) // RANGE I (Lo:Hi:Step):(  -1:   7:   1)
(PID.TID 0000.0001) // RANGE J (Lo:Hi:Step):(   7:  -1:  -1)
(PID.TID 0000.0001) // RANGE K (Lo:Hi:Step):(   1:   1:   1)
(PID.TID 0000.0001) // =======================================================
(PID.TID 0000.0001) // =======================================================
(PID.TID 0000.0001) // END OF FIELD                                          =
(PID.TID 0000.0001) // =======================================================
(PID.TID 0000.0001) 
(PID.TID 0000.0001) // =======================================================
(PID.TID 0000.0001) // Field hFacC at iteration          1
(PID.TID 0000.0001) // CMIN =          1.000000000000000E+00
(PID.TID 0000.0001) // CMAX =          1.000000000000000E+00
(PID.TID 0000.0001) // CINT =          0.000000000000000E+00
(PID.TID 0000.0001) // SYMBOLS (CMIN->CMAX): -abcdefghijklmnopqrstuvwxyz+
(PID.TID 0000.0001) //                  0.0: .
(PID.TID 0000.0001) // RANGE I (Lo:Hi:Step):(  -1:   7:   1)
(PID.TID 0000.0001) // RANGE J (Lo:Hi:Step):(   7:  -1:  -1)
(PID.TID 0000.0001) // RANGE K (Lo:Hi:Step):(   1:   1:   1)
(PID.TID 0000.0001) // =======================================================
(PID.TID 0000.0001) // =======================================================
(PID.TID 0000.0001) // END OF FIELD                                          =
(PID.TID 0000.0001) // =======================================================
(PID.TID 0000.0001) 
(PID.TID 0000.0001) // =======================================================
(PID.TID 0000.0001) // Field hFacW at iteration          1
(PID.TID 0000.0001) // CMIN =          1.000000000000000E+00
(PID.TID 0000.0001) // CMAX =          1.000000000000000E+00
(PID.TID 0000.0001) // CINT =          0.000000000000000E+00
(PID.TID 0000.0001) // SYMBOLS (CMIN->CMAX): -abcdefghijklmnopqrstuvwxyz+
(PID.TID 0000.0001) //                  0.0: .
(PID.TID 0000.0001) // RANGE I (Lo:Hi:Step):(  -1:   7:   1)
(PID.TID 0000.0001) // RANGE J (Lo:Hi:Step):(   7:  -1:  -1)
(PID.TID 0000.0001) // RANGE K (Lo:Hi:Step):(   1:   1:   1)
(PID.TID 0000.0001) // =======================================================
(PID.TID 0000.0001) // =======================================================
(PID.TID 0000.0001) // END OF FIELD                                          =
(PID.TID 0000.0001) // =======================================================
(PID.TID 0000.0001) 
(PID.TID 0000.0001) // =======================================================
(PID.TID 0000.0001) // Field hFacS at iteration          1
(PID.TID 0000.0001) // CMIN =          1.000000000000000E+00
(PID.TID 0000.0001) // CMAX =          1.000000000000000E+00
(PID.TID 0000.0001) // CINT =          0.000000000000000E+00
(PID.TID 0000.0001) // SYMBOLS (CMIN->CMAX): -abcdefghijklmnopqrstuvwxyz+
(PID.TID 0000.0001) //                  0.0: .
(PID.TID 0000.0001) // RANGE I (Lo:Hi:Step):(  -1:   7:   1)
(PID.TID 0000.0001) // RANGE J (Lo:Hi:Step):(   7:  -1:  -1)
(PID.TID 0000.0001) // RANGE K (Lo:Hi:Step):(   1:   1:   1)
(PID.TID 0000.0001) // =======================================================
(PID.TID 0000.0001) // =======================================================
(PID.TID 0000.0001) // END OF FIELD                                          =
(PID.TID 0000.0001) // =======================================================
(PID.TID 0000.0001) 
(PID.TID 0000.0001) // =======================================================
(PID.TID 0000.0001) // Field Initial Temperature at iteration          1
(PID.TID 0000.0001) // CMIN =          4.000000000000000E+00
(PID.TID 0000.0001) // CMAX =          4.000000000000000E+00
(PID.TID 0000.0001) // CINT =          0.000000000000000E+00
(PID.TID 0000.0001) // SYMBOLS (CMIN->CMAX): -abcdefghijklmnopqrstuvwxyz+
(PID.TID 0000.0001) //                  0.0: .
(PID.TID 0000.0001) // RANGE I (Lo:Hi:Step):(   1:   5:   1)
(PID.TID 0000.0001) // RANGE J (Lo:Hi:Step):(   5:   1:  -1)
(PID.TID 0000.0001) // RANGE K (Lo:Hi:Step):(   1:   1:   1)
(PID.TID 0000.0001) // =======================================================
(PID.TID 0000.0001) // =======================================================
(PID.TID 0000.0001) // END OF FIELD                                          =
(PID.TID 0000.0001) // =======================================================
(PID.TID 0000.0001) 
(PID.TID 0000.0001) // =======================================================
(PID.TID 0000.0001) // Field Initial Salinity at iteration          1
(PID.TID 0000.0001) // CMIN =          3.500000000000000E+01
(PID.TID 0000.0001) // CMAX =          3.500000000000000E+01
(PID.TID 0000.0001) // CINT =          0.000000000000000E+00
(PID.TID 0000.0001) // SYMBOLS (CMIN->CMAX): -abcdefghijklmnopqrstuvwxyz+
(PID.TID 0000.0001) //                  0.0: .
(PID.TID 0000.0001) // RANGE I (Lo:Hi:Step):(   1:   5:   1)
(PID.TID 0000.0001) // RANGE J (Lo:Hi:Step):(   5:   1:  -1)
(PID.TID 0000.0001) // RANGE K (Lo:Hi:Step):(   1:   1:   1)
(PID.TID 0000.0001) // =======================================================
(PID.TID 0000.0001) // =======================================================
(PID.TID 0000.0001) // END OF FIELD                                          =
(PID.TID 0000.0001) // =======================================================
(PID.TID 0000.0001) 
(PID.TID 0000.0001) Start initial hydrostatic pressure computation
(PID.TID 0000.0001) Pressure is predetermined for buoyancyRelation OCEANIC
(PID.TID 0000.0001) 
(PID.TID 0000.0001)  MDSREADFIELD: opening global file: windx.sin_y
(PID.TID 0000.0001) // =======================================================
(PID.TID 0000.0001) // Model current state
(PID.TID 0000.0001) // =======================================================
(PID.TID 0000.0001) 
 cg2d: Sum(rhs),rhsMax =   0.00000000000000E+00  0.00000000000000E+00
 cg2d: Sum(rhs),rhsMax =   4.68375338513738E-16  2.62483626325265E-03
 cg2d: Sum(rhs),rhsMax =   2.00360561475321E-16  5.13362633360820E-03
 cg2d: Sum(rhs),rhsMax =  -2.61509564003504E-16  7.16168459162188E-03
 cg2d: Sum(rhs),rhsMax =  -2.97505076130022E-16  9.29466755872485E-03
 cg2d: Sum(rhs),rhsMax =  -3.81639164714898E-17  1.15304356771697E-02
 cg2d: Sum(rhs),rhsMax =  -2.75387351811318E-16  1.37809802304616E-02
 cg2d: Sum(rhs),rhsMax =  -1.90819582357449E-16  1.60011247384902E-02
 cg2d: Sum(rhs),rhsMax =  -5.68989300120393E-16  1.82027338286368E-02
 cg2d: Sum(rhs),rhsMax =  -9.43689570931383E-16  2.04493561146677E-02
 cg2d: Sum(rhs),rhsMax =  -6.38378239159465E-16  2.25706027916659E-02
 cg2d: Sum(rhs),rhsMax =  -7.35522753814166E-16  2.45301657253892E-02
 cg2d: Sum(rhs),rhsMax =  -1.11022302462516E-15  2.63097944399112E-02
 cg2d: Sum(rhs),rhsMax =  -1.62370117351429E-15  2.79110497192540E-02
 cg2d: Sum(rhs),rhsMax =  -2.19269047363468E-15  2.93538602324879E-02
 cg2d: Sum(rhs),rhsMax =  -2.08860706507608E-15  3.06720439022453E-02
 cg2d: Sum(rhs),rhsMax =  -2.31065167000111E-15  3.19067816489969E-02
 cg2d: Sum(rhs),rhsMax =  -1.42941214420489E-15  3.30992667467643E-02
 cg2d: Sum(rhs),rhsMax =  -2.07472927726826E-15  3.42837432590261E-02
 cg2d: Sum(rhs),rhsMax =  -2.22738494315422E-15  3.54819650414068E-02
 cg2d: Sum(rhs),rhsMax =  -1.37390099297363E-15  3.66998057932480E-02
 cg2d: Sum(rhs),rhsMax =  -1.30451205393456E-15  3.79264044781205E-02
 cg2d: Sum(rhs),rhsMax =  -1.73472347597681E-15  3.91358857434902E-02
 cg2d: Sum(rhs),rhsMax =  -1.27675647831893E-15  4.02913638054611E-02
 cg2d: Sum(rhs),rhsMax =  -1.02695629777827E-15  4.13506293198435E-02
 cg2d: Sum(rhs),rhsMax =  -6.10622663543836E-16  4.22726604950520E-02
 cg2d: Sum(rhs),rhsMax =  -8.60422844084496E-16  4.30239433281968E-02
 cg2d: Sum(rhs),rhsMax =  -8.46545056276682E-16  4.35835860053234E-02
 cg2d: Sum(rhs),rhsMax =  -7.35522753814166E-16  4.39463976138831E-02
 cg2d: Sum(rhs),rhsMax =  -1.05471187339390E-15  4.41234512103333E-02
 cg2d: Sum(rhs),rhsMax =  -1.62370117351429E-15  4.41400959561150E-02
 cg2d: Sum(rhs),rhsMax =  -9.29811783123569E-16  4.40318238492086E-02
 cg2d: Sum(rhs),rhsMax =  -7.77156117237610E-16  4.38387394477097E-02
 cg2d: Sum(rhs),rhsMax =  -3.05311331771918E-16  4.54379564451102E-02
 cg2d: Sum(rhs),rhsMax =  -1.52655665885959E-16  4.77259345770410E-02
 cg2d: Sum(rhs),rhsMax =  -2.49800180540660E-16  4.99949947306385E-02
 cg2d: Sum(rhs),rhsMax =   1.94289029309402E-16  5.22073350948024E-02
 cg2d: Sum(rhs),rhsMax =  -1.80411241501588E-16  5.43317159936173E-02
 cg2d: Sum(rhs),rhsMax =  -2.91433543964104E-16  5.63476439497684E-02
 cg2d: Sum(rhs),rhsMax =   2.77555756156289E-17  5.82478252961139E-02
 cg2d: Sum(rhs),rhsMax =  -5.55111512312578E-17  6.00385233151593E-02
 cg2d: Sum(rhs),rhsMax =   3.88578058618805E-16  6.17377935070583E-02
 cg2d: Sum(rhs),rhsMax =   4.44089209850063E-16  6.33719188986229E-02
 cg2d: Sum(rhs),rhsMax =   4.16333634234434E-16  6.49706567895614E-02
 cg2d: Sum(rhs),rhsMax =   2.49800180540660E-16  6.65620861396270E-02
 cg2d: Sum(rhs),rhsMax =  -3.60822483003176E-16  6.81678818618392E-02
 cg2d: Sum(rhs),rhsMax =  -2.22044604925031E-16  6.97997402721270E-02
 cg2d: Sum(rhs),rhsMax =  -3.05311331771918E-16  7.14574674054194E-02
 cg2d: Sum(rhs),rhsMax =  -2.77555756156289E-16  7.31289634604315E-02
 cg2d: Sum(rhs),rhsMax =   8.32667268468867E-17  7.47920406311006E-02
 cg2d: Sum(rhs),rhsMax =   1.38777878078145E-16  7.64177410682040E-02
 cg2d: Sum(rhs),rhsMax =   2.77555756156289E-16  7.79746105041275E-02
 cg2d: Sum(rhs),rhsMax =  -2.77555756156289E-17  7.94332554792986E-02
 cg2d: Sum(rhs),rhsMax =   1.38777878078145E-16  8.07704833210156E-02
 cg2d: Sum(rhs),rhsMax =  -2.77555756156289E-17  8.19723989088675E-02
 cg2d: Sum(rhs),rhsMax =   8.32667268468867E-17  8.30360025696377E-02
 cg2d: Sum(rhs),rhsMax =   3.05311331771918E-16  8.39690755517697E-02
 cg2d: Sum(rhs),rhsMax =  -3.88578058618805E-16  8.47884153831787E-02
 cg2d: Sum(rhs),rhsMax =  -8.32667268468867E-17  8.55167462213236E-02
 cg2d: Sum(rhs),rhsMax =  -2.49800180540660E-16  8.61788330999678E-02
 cg2d: Sum(rhs),rhsMax =  -3.88578058618805E-16  8.67974391406006E-02
 cg2d: Sum(rhs),rhsMax =  -7.07767178198537E-16  8.73897657682899E-02
 cg2d: Sum(rhs),rhsMax =  -6.80011602582908E-16  8.79649135730621E-02
 cg2d: Sum(rhs),rhsMax =  -5.13478148889135E-16  8.85227194841734E-02
 cg2d: Sum(rhs),rhsMax =  -2.77555756156289E-16  8.90540989728464E-02
 cg2d: Sum(rhs),rhsMax =   1.24900090270330E-16  8.95427875525214E-02
 cg2d: Sum(rhs),rhsMax =   2.77555756156289E-16  8.99681681051999E-02
 cg2d: Sum(rhs),rhsMax =   4.85722573273506E-17  9.03087169195117E-02
 cg2d: Sum(rhs),rhsMax =   6.73072708679001E-16  9.05455208060320E-02
 cg2d: Sum(rhs),rhsMax =   8.04911692853238E-16  9.06653200056174E-02
 cg2d: Sum(rhs),rhsMax =   1.06858966120171E-15  9.06626161806899E-02
 cg2d: Sum(rhs),rhsMax =   1.16573417585641E-15  9.05405394636648E-02
 cg2d: Sum(rhs),rhsMax =   1.12063136548102E-15  9.03103698607998E-02
 cg2d: Sum(rhs),rhsMax =   1.42247325030098E-16  8.99898239441119E-02
 cg2d: Sum(rhs),rhsMax =   2.68882138776405E-16  8.96004117492053E-02
 cg2d: Sum(rhs),rhsMax =   5.72458747072346E-17  8.91643085418218E-02
 cg2d: Sum(rhs),rhsMax =  -1.75207071073658E-16  8.87012491828156E-02
 cg2d: Sum(rhs),rhsMax =   8.67361737988404E-17  8.82259313672426E-02
 cg2d: Sum(rhs),rhsMax =   1.90819582357449E-16  8.77463155867830E-02
 cg2d: Sum(rhs),rhsMax =   5.20417042793042E-17  8.72630544333568E-02
 cg2d: Sum(rhs),rhsMax =   5.20417042793042E-17  8.67700995617640E-02
 cg2d: Sum(rhs),rhsMax =   7.97972798949331E-17  8.62563510183823E-02
 cg2d: Sum(rhs),rhsMax =   6.24500451351651E-17  8.57080578749164E-02
 cg2d: Sum(rhs),rhsMax =   3.13984949151802E-16  8.51115725854997E-02
 cg2d: Sum(rhs),rhsMax =   2.74086309204336E-16  8.44560179806370E-02
 cg2d: Sum(rhs),rhsMax =   5.08273978461204E-16  8.37354503120818E-02
 cg2d: Sum(rhs),rhsMax =   3.07046055247895E-16  8.29501898229912E-02
 cg2d: Sum(rhs),rhsMax =   1.42247325030098E-16  8.21071281270928E-02
 cg2d: Sum(rhs),rhsMax =  -2.34187669256869E-17  8.12189874095813E-02
 cg2d: Sum(rhs),rhsMax =  -2.86229373536173E-17  8.03026732823272E-02
 cg2d: Sum(rhs),rhsMax =  -2.15105711021124E-16  7.93770037070409E-02
 cg2d: Sum(rhs),rhsMax =  -9.35015953551499E-16  7.84601879946925E-02
 cg2d: Sum(rhs),rhsMax =  -8.62157567560473E-16  7.75674586715493E-02
 cg2d: Sum(rhs),rhsMax =  -5.44703171456717E-16  7.67092224600602E-02
 cg2d: Sum(rhs),rhsMax =  -1.15532583500055E-15  7.58900034268544E-02
 cg2d: Sum(rhs),rhsMax =  -1.05124242644195E-15  7.51083189549641E-02
 cg2d: Sum(rhs),rhsMax =  -9.08995101411847E-16  7.43574800803351E-02
 cg2d: Sum(rhs),rhsMax =  -5.06539254985228E-16  7.36271653679158E-02
 cg2d: Sum(rhs),rhsMax =  -1.24900090270330E-16  7.29055028951762E-02
 cg2d: Sum(rhs),rhsMax =  -4.16333634234434E-16  7.21813240440684E-02
 --> objf_test(bi,bj)   = -0.849803574935831E+00
 --> objf_tracer(bi,bj) =  0.000000000000000E+00
 --> objf_atl(bi,bj)    =  0.000000000000000E+00
  local fc = -0.849803574935831E+00
 global fc = -0.849803574935831E+00
 ph-check fcpertplus =  -0.849803575
(PID.TID 0000.0001)  MDSREADFIELD: opening file: xx_depth.0000000000.001.001.data
 ph-check fcpertminus =  -0.849803598
(PID.TID 0000.0001)  MDSREADFIELD: opening file: xx_depth.0000000000.001.001.data
(PID.TID 0000.0001)  MDSREADFIELD: opening global file: walls.bigRidge
(PID.TID 0000.0001) // =======================================================
(PID.TID 0000.0001) // Field Bottom depths (ini_depths) at iteration          1
(PID.TID 0000.0001) // CMIN =         -5.000000000000000E+03
(PID.TID 0000.0001) // CMAX =         -2.000000000000000E+03
(PID.TID 0000.0001) // CINT =          1.111111111111111E+02
(PID.TID 0000.0001) // SYMBOLS (CMIN->CMAX): -abcdefghijklmnopqrstuvwxyz+
(PID.TID 0000.0001) //                  0.0: .
(PID.TID 0000.0001) // RANGE I (Lo:Hi:Step):(  -1:   7:   1)
(PID.TID 0000.0001) // RANGE J (Lo:Hi:Step):(   7:  -1:  -1)
(PID.TID 0000.0001) // RANGE K (Lo:Hi:Step):(   1:   1:   1)
(PID.TID 0000.0001) // =======================================================
(PID.TID 0000.0001) K =   1
(PID.TID 0000.0001) //
(PID.TID 0000.0001) // |--J--|*01234567
(PID.TID 0000.0001) //      7 ----+----
(PID.TID 0000.0001) //      6 .........
(PID.TID 0000.0001) //      5 ----+----
(PID.TID 0000.0001) //      4 ----+----
(PID.TID 0000.0001) //      3 ----+----
(PID.TID 0000.0001) //      2 ----+----
(PID.TID 0000.0001) //      1 .........
(PID.TID 0000.0001) //      0 ----+----
(PID.TID 0000.0001) //     -1 ----+----
(PID.TID 0000.0001) // =======================================================
(PID.TID 0000.0001) // END OF FIELD                                          =
(PID.TID 0000.0001) // =======================================================
(PID.TID 0000.0001) 
(PID.TID 0000.0001) // =======================================================
(PID.TID 0000.0001) // Field Model R_low (ini_masks_etc) at iteration          1
(PID.TID 0000.0001) // CMIN =         -5.000000000000000E+03
(PID.TID 0000.0001) // CMAX =         -2.000000000000000E+03
(PID.TID 0000.0001) // CINT =          1.111111111111111E+02
(PID.TID 0000.0001) // SYMBOLS (CMIN->CMAX): -abcdefghijklmnopqrstuvwxyz+
(PID.TID 0000.0001) //                  0.0: .
(PID.TID 0000.0001) // RANGE I (Lo:Hi:Step):(  -1:   7:   1)
(PID.TID 0000.0001) // RANGE J (Lo:Hi:Step):(   7:  -1:  -1)
(PID.TID 0000.0001) // RANGE K (Lo:Hi:Step):(   1:   1:   1)
(PID.TID 0000.0001) // =======================================================
(PID.TID 0000.0001) K =   1
(PID.TID 0000.0001) //
(PID.TID 0000.0001) // |--J--|*01234567
(PID.TID 0000.0001) //      7 ----+----
(PID.TID 0000.0001) //      6 .........
(PID.TID 0000.0001) //      5 ----+----
(PID.TID 0000.0001) //      4 ----+----
(PID.TID 0000.0001) //      3 ----+----
(PID.TID 0000.0001) //      2 ----+----
(PID.TID 0000.0001) //      1 .........
(PID.TID 0000.0001) //      0 ----+----
(PID.TID 0000.0001) //     -1 ----+----
(PID.TID 0000.0001) // =======================================================
(PID.TID 0000.0001) // END OF FIELD                                          =
(PID.TID 0000.0001) // =======================================================
(PID.TID 0000.0001) 
(PID.TID 0000.0001) // =======================================================
(PID.TID 0000.0001) // Field Model Ro_surf (ini_masks_etc) at iteration          1
(PID.TID 0000.0001) // CMIN =          2.273736754432321E-13
(PID.TID 0000.0001) // CMAX =          2.273736754432321E-13
(PID.TID 0000.0001) // CINT =          0.000000000000000E+00
(PID.TID 0000.0001) // SYMBOLS (CMIN->CMAX): -abcdefghijklmnopqrstuvwxyz+
(PID.TID 0000.0001) //                  0.0: .
(PID.TID 0000.0001) // RANGE I (Lo:Hi:Step):(  -1:   7:   1)
(PID.TID 0000.0001) // RANGE J (Lo:Hi:Step):(   7:  -1:  -1)
(PID.TID 0000.0001) // RANGE K (Lo:Hi:Step):(   1:   1:   1)
(PID.TID 0000.0001) // =======================================================
(PID.TID 0000.0001) // =======================================================
(PID.TID 0000.0001) // END OF FIELD                                          =
(PID.TID 0000.0001) // =======================================================
(PID.TID 0000.0001) 
(PID.TID 0000.0001) // =======================================================
(PID.TID 0000.0001) // Field hFacC at iteration          1
(PID.TID 0000.0001) // CMIN =          1.000000000000000E+00
(PID.TID 0000.0001) // CMAX =          1.000000000000000E+00
(PID.TID 0000.0001) // CINT =          0.000000000000000E+00
(PID.TID 0000.0001) // SYMBOLS (CMIN->CMAX): -abcdefghijklmnopqrstuvwxyz+
(PID.TID 0000.0001) //                  0.0: .
(PID.TID 0000.0001) // RANGE I (Lo:Hi:Step):(  -1:   7:   1)
(PID.TID 0000.0001) // RANGE J (Lo:Hi:Step):(   7:  -1:  -1)
(PID.TID 0000.0001) // RANGE K (Lo:Hi:Step):(   1:   1:   1)
(PID.TID 0000.0001) // =======================================================
(PID.TID 0000.0001) // =======================================================
(PID.TID 0000.0001) // END OF FIELD                                          =
(PID.TID 0000.0001) // =======================================================
(PID.TID 0000.0001) 
(PID.TID 0000.0001) // =======================================================
(PID.TID 0000.0001) // Field hFacW at iteration          1
(PID.TID 0000.0001) // CMIN =          1.000000000000000E+00
(PID.TID 0000.0001) // CMAX =          1.000000000000000E+00
(PID.TID 0000.0001) // CINT =          0.000000000000000E+00
(PID.TID 0000.0001) // SYMBOLS (CMIN->CMAX): -abcdefghijklmnopqrstuvwxyz+
(PID.TID 0000.0001) //                  0.0: .
(PID.TID 0000.0001) // RANGE I (Lo:Hi:Step):(  -1:   7:   1)
(PID.TID 0000.0001) // RANGE J (Lo:Hi:Step):(   7:  -1:  -1)
(PID.TID 0000.0001) // RANGE K (Lo:Hi:Step):(   1:   1:   1)
(PID.TID 0000.0001) // =======================================================
(PID.TID 0000.0001) // =======================================================
(PID.TID 0000.0001) // END OF FIELD                                          =
(PID.TID 0000.0001) // =======================================================
(PID.TID 0000.0001) 
(PID.TID 0000.0001) // =======================================================
(PID.TID 0000.0001) // Field hFacS at iteration          1
(PID.TID 0000.0001) // CMIN =          1.000000000000000E+00
(PID.TID 0000.0001) // CMAX =          1.000000000000000E+00
(PID.TID 0000.0001) // CINT =          0.000000000000000E+00
(PID.TID 0000.0001) // SYMBOLS (CMIN->CMAX): -abcdefghijklmnopqrstuvwxyz+
(PID.TID 0000.0001) //                  0.0: .
(PID.TID 0000.0001) // RANGE I (Lo:Hi:Step):(  -1:   7:   1)
(PID.TID 0000.0001) // RANGE J (Lo:Hi:Step):(   7:  -1:  -1)
(PID.TID 0000.0001) // RANGE K (Lo:Hi:Step):(   1:   1:   1)
(PID.TID 0000.0001) // =======================================================
(PID.TID 0000.0001) // =======================================================
(PID.TID 0000.0001) // END OF FIELD                                          =
(PID.TID 0000.0001) // =======================================================
(PID.TID 0000.0001) 
(PID.TID 0000.0001) %MON surfExpanfCori_max           =  -1.0735540000000E-04
(PID.TID 0000.0001) %MON surfExpanfCori_min           =  -1.1783060000000E-04
(PID.TID 0000.0001) %MON surfExpanfCori_mean          =  -1.1259300000000E-04
(PID.TID 0000.0001) %MON surfExpanfCori_sd            =   3.7035424771427E-06
(PID.TID 0000.0001) %MON surfExpanfCoriG_max          =  -1.0866480000000E-04
(PID.TID 0000.0001) %MON surfExpanfCoriG_min          =  -1.1914000000000E-04
(PID.TID 0000.0001) %MON surfExpanfCoriG_mean         =  -1.1390240000000E-04
(PID.TID 0000.0001) %MON surfExpanfCoriG_sd           =   3.7035424771427E-06
(PID.TID 0000.0001) %MON surfExpanfCoriCos_max        =   0.0000000000000E+00
(PID.TID 0000.0001) %MON surfExpanfCoriCos_min        =   0.0000000000000E+00
(PID.TID 0000.0001) %MON surfExpanfCoriCos_mean       =   0.0000000000000E+00
(PID.TID 0000.0001) %MON surfExpanfCoriCos_sd         =   0.0000000000000E+00
(PID.TID 0000.0001) INI_CG2D: CG2D normalisation factor =  1.9999999999999996E-04
(PID.TID 0000.0001) 
                     ctrl_depth_ini: ctrl update R_low,
                                     adding the control vector.
(PID.TID 0000.0001)  MDSREADFIELD: opening file: xx_depth.0000000000.001.001.data
(PID.TID 0000.0001) // =======================================================
(PID.TID 0000.0001) // Field Model Ro_surf (update_masks_etc) at iteration          1
(PID.TID 0000.0001) // CMIN =          2.273736754432321E-13
(PID.TID 0000.0001) // CMAX =          2.273736754432321E-13
(PID.TID 0000.0001) // CINT =          0.000000000000000E+00
(PID.TID 0000.0001) // SYMBOLS (CMIN->CMAX): -abcdefghijklmnopqrstuvwxyz+
(PID.TID 0000.0001) //                  0.0: .
(PID.TID 0000.0001) // RANGE I (Lo:Hi:Step):(  -1:   7:   1)
(PID.TID 0000.0001) // RANGE J (Lo:Hi:Step):(   7:  -1:  -1)
(PID.TID 0000.0001) // RANGE K (Lo:Hi:Step):(   1:   1:   1)
(PID.TID 0000.0001) // =======================================================
(PID.TID 0000.0001) // =======================================================
(PID.TID 0000.0001) // END OF FIELD                                          =
(PID.TID 0000.0001) // =======================================================
(PID.TID 0000.0001) 
(PID.TID 0000.0001) // =======================================================
(PID.TID 0000.0001) // Field hFacC at iteration          1
(PID.TID 0000.0001) // CMIN =          1.000000000000000E+00
(PID.TID 0000.0001) // CMAX =          1.000000000000000E+00
(PID.TID 0000.0001) // CINT =          0.000000000000000E+00
(PID.TID 0000.0001) // SYMBOLS (CMIN->CMAX): -abcdefghijklmnopqrstuvwxyz+
(PID.TID 0000.0001) //                  0.0: .
(PID.TID 0000.0001) // RANGE I (Lo:Hi:Step):(  -1:   7:   1)
(PID.TID 0000.0001) // RANGE J (Lo:Hi:Step):(   7:  -1:  -1)
(PID.TID 0000.0001) // RANGE K (Lo:Hi:Step):(   1:   1:   1)
(PID.TID 0000.0001) // =======================================================
(PID.TID 0000.0001) // =======================================================
(PID.TID 0000.0001) // END OF FIELD                                          =
(PID.TID 0000.0001) // =======================================================
(PID.TID 0000.0001) 
(PID.TID 0000.0001) // =======================================================
(PID.TID 0000.0001) // Field hFacW at iteration          1
(PID.TID 0000.0001) // CMIN =          1.000000000000000E+00
(PID.TID 0000.0001) // CMAX =          1.000000000000000E+00
(PID.TID 0000.0001) // CINT =          0.000000000000000E+00
(PID.TID 0000.0001) // SYMBOLS (CMIN->CMAX): -abcdefghijklmnopqrstuvwxyz+
(PID.TID 0000.0001) //                  0.0: .
(PID.TID 0000.0001) // RANGE I (Lo:Hi:Step):(  -1:   7:   1)
(PID.TID 0000.0001) // RANGE J (Lo:Hi:Step):(   7:  -1:  -1)
(PID.TID 0000.0001) // RANGE K (Lo:Hi:Step):(   1:   1:   1)
(PID.TID 0000.0001) // =======================================================
(PID.TID 0000.0001) // =======================================================
(PID.TID 0000.0001) // END OF FIELD                                          =
(PID.TID 0000.0001) // =======================================================
(PID.TID 0000.0001) 
(PID.TID 0000.0001) // =======================================================
(PID.TID 0000.0001) // Field hFacS at iteration          1
(PID.TID 0000.0001) // CMIN =          1.000000000000000E+00
(PID.TID 0000.0001) // CMAX =          1.000000000000000E+00
(PID.TID 0000.0001) // CINT =          0.000000000000000E+00
(PID.TID 0000.0001) // SYMBOLS (CMIN->CMAX): -abcdefghijklmnopqrstuvwxyz+
(PID.TID 0000.0001) //                  0.0: .
(PID.TID 0000.0001) // RANGE I (Lo:Hi:Step):(  -1:   7:   1)
(PID.TID 0000.0001) // RANGE J (Lo:Hi:Step):(   7:  -1:  -1)
(PID.TID 0000.0001) // RANGE K (Lo:Hi:Step):(   1:   1:   1)
(PID.TID 0000.0001) // =======================================================
(PID.TID 0000.0001) // =======================================================
(PID.TID 0000.0001) // END OF FIELD                                          =
(PID.TID 0000.0001) // =======================================================
(PID.TID 0000.0001) 
(PID.TID 0000.0001) // =======================================================
(PID.TID 0000.0001) // Field Initial Temperature at iteration          1
(PID.TID 0000.0001) // CMIN =          4.000000000000000E+00
(PID.TID 0000.0001) // CMAX =          4.000000000000000E+00
(PID.TID 0000.0001) // CINT =          0.000000000000000E+00
(PID.TID 0000.0001) // SYMBOLS (CMIN->CMAX): -abcdefghijklmnopqrstuvwxyz+
(PID.TID 0000.0001) //                  0.0: .
(PID.TID 0000.0001) // RANGE I (Lo:Hi:Step):(   1:   5:   1)
(PID.TID 0000.0001) // RANGE J (Lo:Hi:Step):(   5:   1:  -1)
(PID.TID 0000.0001) // RANGE K (Lo:Hi:Step):(   1:   1:   1)
(PID.TID 0000.0001) // =======================================================
(PID.TID 0000.0001) // =======================================================
(PID.TID 0000.0001) // END OF FIELD                                          =
(PID.TID 0000.0001) // =======================================================
(PID.TID 0000.0001) 
(PID.TID 0000.0001) // =======================================================
(PID.TID 0000.0001) // Field Initial Salinity at iteration          1
(PID.TID 0000.0001) // CMIN =          3.500000000000000E+01
(PID.TID 0000.0001) // CMAX =          3.500000000000000E+01
(PID.TID 0000.0001) // CINT =          0.000000000000000E+00
(PID.TID 0000.0001) // SYMBOLS (CMIN->CMAX): -abcdefghijklmnopqrstuvwxyz+
(PID.TID 0000.0001) //                  0.0: .
(PID.TID 0000.0001) // RANGE I (Lo:Hi:Step):(   1:   5:   1)
(PID.TID 0000.0001) // RANGE J (Lo:Hi:Step):(   5:   1:  -1)
(PID.TID 0000.0001) // RANGE K (Lo:Hi:Step):(   1:   1:   1)
(PID.TID 0000.0001) // =======================================================
(PID.TID 0000.0001) // =======================================================
(PID.TID 0000.0001) // END OF FIELD                                          =
(PID.TID 0000.0001) // =======================================================
(PID.TID 0000.0001) 
(PID.TID 0000.0001) Start initial hydrostatic pressure computation
(PID.TID 0000.0001) Pressure is predetermined for buoyancyRelation OCEANIC
(PID.TID 0000.0001) 
(PID.TID 0000.0001)  MDSREADFIELD: opening global file: windx.sin_y
(PID.TID 0000.0001) // =======================================================
(PID.TID 0000.0001) // Model current state
(PID.TID 0000.0001) // =======================================================
(PID.TID 0000.0001) 
 cg2d: Sum(rhs),rhsMax =   0.00000000000000E+00  0.00000000000000E+00
 cg2d: Sum(rhs),rhsMax =   4.68375338513738E-16  2.62483626325265E-03
 cg2d: Sum(rhs),rhsMax =   3.79037079500932E-16  5.13362633360820E-03
 cg2d: Sum(rhs),rhsMax =   6.20163642661709E-16  7.16168459399426E-03
 cg2d: Sum(rhs),rhsMax =   8.65627014512427E-16  9.29466756099543E-03
 cg2d: Sum(rhs),rhsMax =   4.26741975090295E-16  1.15304356823324E-02
 cg2d: Sum(rhs),rhsMax =   6.44016090456390E-16  1.37809802403124E-02
 cg2d: Sum(rhs),rhsMax =   7.97972798949331E-17  1.60011247553675E-02
 cg2d: Sum(rhs),rhsMax =   2.77555756156289E-16  1.82027337538083E-02
 cg2d: Sum(rhs),rhsMax =   0.00000000000000E+00  2.04493560596425E-02
 cg2d: Sum(rhs),rhsMax =   5.13478148889135E-16  2.25706027561537E-02
 cg2d: Sum(rhs),rhsMax =   2.22044604925031E-16  2.45301657070149E-02
 cg2d: Sum(rhs),rhsMax =  -2.22044604925031E-16  2.63097944350741E-02
 cg2d: Sum(rhs),rhsMax =  -3.05311331771918E-16  2.79110497241744E-02
 cg2d: Sum(rhs),rhsMax =  -2.15105711021124E-16  2.93538602442448E-02
 cg2d: Sum(rhs),rhsMax =  -4.85722573273506E-16  3.06720439196392E-02
 cg2d: Sum(rhs),rhsMax =   6.93889390390723E-17  3.19067816731102E-02
 cg2d: Sum(rhs),rhsMax =  -3.88578058618805E-16  3.30992667811354E-02
 cg2d: Sum(rhs),rhsMax =  -3.05311331771918E-16  3.42837433094141E-02
 cg2d: Sum(rhs),rhsMax =  -5.27355936696949E-16  3.54819651151884E-02
 cg2d: Sum(rhs),rhsMax =  -7.91033905045424E-16  3.66998058985465E-02
 cg2d: Sum(rhs),rhsMax =  -8.11850586757146E-16  3.79264046228074E-02
 cg2d: Sum(rhs),rhsMax =  -5.89805981832114E-16  3.91358859342218E-02
 cg2d: Sum(rhs),rhsMax =   5.55111512312578E-17  4.02913640468991E-02
 cg2d: Sum(rhs),rhsMax =  -3.46944695195361E-16  4.13506296141785E-02
 cg2d: Sum(rhs),rhsMax =  -6.38378239159465E-16  4.22726608418963E-02
 cg2d: Sum(rhs),rhsMax =  -3.46944695195361E-16  4.30239437248518E-02
 cg2d: Sum(rhs),rhsMax =  -9.43689570931383E-16  4.35835864473691E-02
 cg2d: Sum(rhs),rhsMax =  -1.22124532708767E-15  4.39463980959912E-02
 cg2d: Sum(rhs),rhsMax =  -9.02056207507940E-16  4.41234517271711E-02
 cg2d: Sum(rhs),rhsMax =  -1.24900090270330E-16  4.41400965032017E-02
 cg2d: Sum(rhs),rhsMax =   5.55111512312578E-17  4.40318244235953E-02
 cg2d: Sum(rhs),rhsMax =   1.38777878078145E-17  4.38387400483823E-02
 cg2d: Sum(rhs),rhsMax =   3.88578058618805E-16  4.54379564417989E-02
 cg2d: Sum(rhs),rhsMax =   2.22044604925031E-16  4.77259345892544E-02
 cg2d: Sum(rhs),rhsMax =   4.30211422042248E-16  4.99949947507999E-02
 cg2d: Sum(rhs),rhsMax =   4.57966997657877E-16  5.22073351149709E-02
 cg2d: Sum(rhs),rhsMax =   7.35522753814166E-16  5.43317160068569E-02
 cg2d: Sum(rhs),rhsMax =   4.30211422042248E-16  5.63476439513284E-02
 cg2d: Sum(rhs),rhsMax =   1.11022302462516E-16  5.82478252842413E-02
 cg2d: Sum(rhs),rhsMax =  -3.60822483003176E-16  6.00385232914263E-02
 cg2d: Sum(rhs),rhsMax =  -8.88178419700125E-16  6.17377934761664E-02
 cg2d: Sum(rhs),rhsMax =  -1.05471187339390E-15  6.33719188677272E-02
 cg2d: Sum(rhs),rhsMax =  -1.11022302462516E-15  6.49706567672335E-02
 cg2d: Sum(rhs),rhsMax =  -9.15933995315754E-16  6.65620861346266E-02
 cg2d: Sum(rhs),rhsMax =  -8.04911692853238E-16  6.81678818818906E-02
 cg2d: Sum(rhs),rhsMax =  -1.30451205393456E-15  6.97997403228910E-02
 cg2d: Sum(rhs),rhsMax =  -1.19348975147204E-15  7.14574674898145E-02
 cg2d: Sum(rhs),rhsMax =  -1.27675647831893E-15  7.31289635783979E-02
 cg2d: Sum(rhs),rhsMax =  -1.08246744900953E-15  7.47920407798332E-02
 cg2d: Sum(rhs),rhsMax =  -1.05471187339390E-15  7.64177412428007E-02
 cg2d: Sum(rhs),rhsMax =  -1.33226762955019E-15  7.79746106985409E-02
 cg2d: Sum(rhs),rhsMax =  -1.41553435639707E-15  7.94332556874307E-02
 cg2d: Sum(rhs),rhsMax =  -1.52655665885959E-15  8.07704835377824E-02
 cg2d: Sum(rhs),rhsMax =  -1.27675647831893E-15  8.19723991310654E-02
 cg2d: Sum(rhs),rhsMax =  -6.10622663543836E-16  8.30360027964824E-02
 cg2d: Sum(rhs),rhsMax =   1.24900090270330E-16  8.39690757850311E-02
 cg2d: Sum(rhs),rhsMax =  -1.38777878078145E-17  8.47884156269016E-02
 cg2d: Sum(rhs),rhsMax =  -3.19189119579733E-16  8.55167464811874E-02
 cg2d: Sum(rhs),rhsMax =   6.93889390390723E-17  8.61788333823952E-02
 cg2d: Sum(rhs),rhsMax =  -1.11022302462516E-16  8.67974394517586E-02
 cg2d: Sum(rhs),rhsMax =   1.24900090270330E-16  8.73897661131433E-02
 cg2d: Sum(rhs),rhsMax =  -2.77555756156289E-17  8.79649139546219E-02
 cg2d: Sum(rhs),rhsMax =  -2.77555756156289E-17  8.85227199030541E-02
 cg2d: Sum(rhs),rhsMax =  -1.80411241501588E-16  8.90540994271902E-02
 cg2d: Sum(rhs),rhsMax =  -4.44089209850063E-16  8.95427880382912E-02
 cg2d: Sum(rhs),rhsMax =  -7.77156117237610E-16  8.99681686167844E-02
 cg2d: Sum(rhs),rhsMax =  -7.21644966006352E-16  9.03087174505414E-02
 cg2d: Sum(rhs),rhsMax =  -8.60422844084496E-16  9.05455213502701E-02
 cg2d: Sum(rhs),rhsMax =  -5.68989300120393E-16  9.06653205577901E-02
 cg2d: Sum(rhs),rhsMax =  -4.57966997657877E-16  9.06626167371250E-02
 cg2d: Sum(rhs),rhsMax =   4.85722573273506E-17  9.05405400226486E-02
 cg2d: Sum(rhs),rhsMax =  -1.76941794549634E-16  9.03103704226057E-02
 cg2d: Sum(rhs),rhsMax =  -7.56339435525888E-16  8.99898245107041E-02
 cg2d: Sum(rhs),rhsMax =  -4.52762827229947E-16  8.96004123236774E-02
 cg2d: Sum(rhs),rhsMax =  -4.69676381120721E-16  8.91643091276641E-02
 cg2d: Sum(rhs),rhsMax =  -5.68989300120393E-16  8.87012497831319E-02
 cg2d: Sum(rhs),rhsMax =  -4.54497550705923E-16  8.82259319840407E-02
 cg2d: Sum(rhs),rhsMax =  -3.36536354339501E-16  8.77463162204484E-02
 cg2d: Sum(rhs),rhsMax =  -2.08166817117217E-17  8.72630550823869E-02
 cg2d: Sum(rhs),rhsMax =   5.75928194024300E-16  8.67701002227974E-02
 cg2d: Sum(rhs),rhsMax =   3.22658566531686E-16  8.62563516865106E-02
 cg2d: Sum(rhs),rhsMax =   1.63064006741820E-16  8.57080585442232E-02
 cg2d: Sum(rhs),rhsMax =   3.46944695195361E-17  8.51115732497361E-02
 cg2d: Sum(rhs),rhsMax =  -4.49293380277993E-16  8.44560186339257E-02
 cg2d: Sum(rhs),rhsMax =  -3.78169717762944E-16  8.37354509495400E-02
 cg2d: Sum(rhs),rhsMax =  -4.42354486374086E-16  8.29501904411791E-02
 cg2d: Sum(rhs),rhsMax =  -4.00721122950642E-16  8.21071287242221E-02
 cg2d: Sum(rhs),rhsMax =  -1.74339709335669E-16  8.12189879854628E-02
 cg2d: Sum(rhs),rhsMax =  -1.27502175484295E-16  8.03026738380697E-02
 cg2d: Sum(rhs),rhsMax =   1.38777878078145E-17  7.93770042445601E-02
 cg2d: Sum(rhs),rhsMax =  -2.44596010112730E-16  7.84601885161110E-02
 cg2d: Sum(rhs),rhsMax =  -1.40512601554121E-16  7.75674591785863E-02
 cg2d: Sum(rhs),rhsMax =   6.45317133063372E-16  7.67092229535078E-02
 cg2d: Sum(rhs),rhsMax =   2.74086309204336E-16  7.58900039062189E-02
 cg2d: Sum(rhs),rhsMax =   1.70002900645727E-16  7.51083194183262E-02
 cg2d: Sum(rhs),rhsMax =   2.01227923213310E-16  7.43574805244451E-02
 cg2d: Sum(rhs),rhsMax =   4.16333634234434E-16  7.36271657885019E-02
 cg2d: Sum(rhs),rhsMax =   8.32667268468867E-16  7.29055032874131E-02
 cg2d: Sum(rhs),rhsMax =   7.42461647718073E-16  7.21813244031298E-02
 --> objf_test(bi,bj)   = -0.849803620951982E+00
 --> objf_tracer(bi,bj) =  0.000000000000000E+00
 --> objf_atl(bi,bj)    =  0.000000000000000E+00
  local fc = -0.849803620951982E+00
 global fc = -0.849803620951982E+00
(PID.TID 0000.0001)  MDSREADFIELD: opening file: xx_depth.0000000000.001.001.data
 grad-res -------------------------------
 grad-res     0    9    4    3    1   -.849803598E+00 -.849803575E+00 -.849803621E+00
 grad-res     0    9    9    9   20   0.230079855E-03 0.230080756E-03 -.391326736E-05
(PID.TID 0000.0001)       precision_grdchk_result ADM    -8.49803597943908E-01     2.30079855194871E-04
 ph-grd  ierr ---------------------------
 ph-grd  ierr =  0, icomp =  9, ichknum =  9
(PID.TID 0000.0001)  MDSREADFIELD: opening file: adxx_depth.0000000000.001.001.data
(PID.TID 0000.0001)  MDSREADFIELD: opening file: xx_depth.0000000000.001.001.data
(PID.TID 0000.0001)  MDSREADFIELD: opening global file: walls.bigRidge
(PID.TID 0000.0001) // =======================================================
(PID.TID 0000.0001) // Field Bottom depths (ini_depths) at iteration          1
(PID.TID 0000.0001) // CMIN =         -5.000000000000000E+03
(PID.TID 0000.0001) // CMAX =         -2.000000000000000E+03
(PID.TID 0000.0001) // CINT =          1.111111111111111E+02
(PID.TID 0000.0001) // SYMBOLS (CMIN->CMAX): -abcdefghijklmnopqrstuvwxyz+
(PID.TID 0000.0001) //                  0.0: .
(PID.TID 0000.0001) // RANGE I (Lo:Hi:Step):(  -1:   7:   1)
(PID.TID 0000.0001) // RANGE J (Lo:Hi:Step):(   7:  -1:  -1)
(PID.TID 0000.0001) // RANGE K (Lo:Hi:Step):(   1:   1:   1)
(PID.TID 0000.0001) // =======================================================
(PID.TID 0000.0001) K =   1
(PID.TID 0000.0001) //
(PID.TID 0000.0001) // |--J--|*01234567
(PID.TID 0000.0001) //      7 ----+----
(PID.TID 0000.0001) //      6 .........
(PID.TID 0000.0001) //      5 ----+----
(PID.TID 0000.0001) //      4 ----+----
(PID.TID 0000.0001) //      3 ----+----
(PID.TID 0000.0001) //      2 ----+----
(PID.TID 0000.0001) //      1 .........
(PID.TID 0000.0001) //      0 ----+----
(PID.TID 0000.0001) //     -1 ----+----
(PID.TID 0000.0001) // =======================================================
(PID.TID 0000.0001) // END OF FIELD                                          =
(PID.TID 0000.0001) // =======================================================
(PID.TID 0000.0001) 
(PID.TID 0000.0001) // =======================================================
(PID.TID 0000.0001) // Field Model R_low (ini_masks_etc) at iteration          1
(PID.TID 0000.0001) // CMIN =         -5.000000000000000E+03
(PID.TID 0000.0001) // CMAX =         -2.000000000000000E+03
(PID.TID 0000.0001) // CINT =          1.111111111111111E+02
(PID.TID 0000.0001) // SYMBOLS (CMIN->CMAX): -abcdefghijklmnopqrstuvwxyz+
(PID.TID 0000.0001) //                  0.0: .
(PID.TID 0000.0001) // RANGE I (Lo:Hi:Step):(  -1:   7:   1)
(PID.TID 0000.0001) // RANGE J (Lo:Hi:Step):(   7:  -1:  -1)
(PID.TID 0000.0001) // RANGE K (Lo:Hi:Step):(   1:   1:   1)
(PID.TID 0000.0001) // =======================================================
(PID.TID 0000.0001) K =   1
(PID.TID 0000.0001) //
(PID.TID 0000.0001) // |--J--|*01234567
(PID.TID 0000.0001) //      7 ----+----
(PID.TID 0000.0001) //      6 .........
(PID.TID 0000.0001) //      5 ----+----
(PID.TID 0000.0001) //      4 ----+----
(PID.TID 0000.0001) //      3 ----+----
(PID.TID 0000.0001) //      2 ----+----
(PID.TID 0000.0001) //      1 .........
(PID.TID 0000.0001) //      0 ----+----
(PID.TID 0000.0001) //     -1 ----+----
(PID.TID 0000.0001) // =======================================================
(PID.TID 0000.0001) // END OF FIELD                                          =
(PID.TID 0000.0001) // =======================================================
(PID.TID 0000.0001) 
(PID.TID 0000.0001) // =======================================================
(PID.TID 0000.0001) // Field Model Ro_surf (ini_masks_etc) at iteration          1
(PID.TID 0000.0001) // CMIN =          2.273736754432321E-13
(PID.TID 0000.0001) // CMAX =          2.273736754432321E-13
(PID.TID 0000.0001) // CINT =          0.000000000000000E+00
(PID.TID 0000.0001) // SYMBOLS (CMIN->CMAX): -abcdefghijklmnopqrstuvwxyz+
(PID.TID 0000.0001) //                  0.0: .
(PID.TID 0000.0001) // RANGE I (Lo:Hi:Step):(  -1:   7:   1)
(PID.TID 0000.0001) // RANGE J (Lo:Hi:Step):(   7:  -1:  -1)
(PID.TID 0000.0001) // RANGE K (Lo:Hi:Step):(   1:   1:   1)
(PID.TID 0000.0001) // =======================================================
(PID.TID 0000.0001) // =======================================================
(PID.TID 0000.0001) // END OF FIELD                                          =
(PID.TID 0000.0001) // =======================================================
(PID.TID 0000.0001) 
(PID.TID 0000.0001) // =======================================================
(PID.TID 0000.0001) // Field hFacC at iteration          1
(PID.TID 0000.0001) // CMIN =          1.000000000000000E+00
(PID.TID 0000.0001) // CMAX =          1.000000000000000E+00
(PID.TID 0000.0001) // CINT =          0.000000000000000E+00
(PID.TID 0000.0001) // SYMBOLS (CMIN->CMAX): -abcdefghijklmnopqrstuvwxyz+
(PID.TID 0000.0001) //                  0.0: .
(PID.TID 0000.0001) // RANGE I (Lo:Hi:Step):(  -1:   7:   1)
(PID.TID 0000.0001) // RANGE J (Lo:Hi:Step):(   7:  -1:  -1)
(PID.TID 0000.0001) // RANGE K (Lo:Hi:Step):(   1:   1:   1)
(PID.TID 0000.0001) // =======================================================
(PID.TID 0000.0001) // =======================================================
(PID.TID 0000.0001) // END OF FIELD                                          =
(PID.TID 0000.0001) // =======================================================
(PID.TID 0000.0001) 
(PID.TID 0000.0001) // =======================================================
(PID.TID 0000.0001) // Field hFacW at iteration          1
(PID.TID 0000.0001) // CMIN =          1.000000000000000E+00
(PID.TID 0000.0001) // CMAX =          1.000000000000000E+00
(PID.TID 0000.0001) // CINT =          0.000000000000000E+00
(PID.TID 0000.0001) // SYMBOLS (CMIN->CMAX): -abcdefghijklmnopqrstuvwxyz+
(PID.TID 0000.0001) //                  0.0: .
(PID.TID 0000.0001) // RANGE I (Lo:Hi:Step):(  -1:   7:   1)
(PID.TID 0000.0001) // RANGE J (Lo:Hi:Step):(   7:  -1:  -1)
(PID.TID 0000.0001) // RANGE K (Lo:Hi:Step):(   1:   1:   1)
(PID.TID 0000.0001) // =======================================================
(PID.TID 0000.0001) // =======================================================
(PID.TID 0000.0001) // END OF FIELD                                          =
(PID.TID 0000.0001) // =======================================================
(PID.TID 0000.0001) 
(PID.TID 0000.0001) // =======================================================
(PID.TID 0000.0001) // Field hFacS at iteration          1
(PID.TID 0000.0001) // CMIN =          1.000000000000000E+00
(PID.TID 0000.0001) // CMAX =          1.000000000000000E+00
(PID.TID 0000.0001) // CINT =          0.000000000000000E+00
(PID.TID 0000.0001) // SYMBOLS (CMIN->CMAX): -abcdefghijklmnopqrstuvwxyz+
(PID.TID 0000.0001) //                  0.0: .
(PID.TID 0000.0001) // RANGE I (Lo:Hi:Step):(  -1:   7:   1)
(PID.TID 0000.0001) // RANGE J (Lo:Hi:Step):(   7:  -1:  -1)
(PID.TID 0000.0001) // RANGE K (Lo:Hi:Step):(   1:   1:   1)
(PID.TID 0000.0001) // =======================================================
(PID.TID 0000.0001) // =======================================================
(PID.TID 0000.0001) // END OF FIELD                                          =
(PID.TID 0000.0001) // =======================================================
(PID.TID 0000.0001) 
(PID.TID 0000.0001) %MON surfExpanfCori_max           =  -1.0735540000000E-04
(PID.TID 0000.0001) %MON surfExpanfCori_min           =  -1.1783060000000E-04
(PID.TID 0000.0001) %MON surfExpanfCori_mean          =  -1.1259300000000E-04
(PID.TID 0000.0001) %MON surfExpanfCori_sd            =   3.7035424771427E-06
(PID.TID 0000.0001) %MON surfExpanfCoriG_max          =  -1.0866480000000E-04
(PID.TID 0000.0001) %MON surfExpanfCoriG_min          =  -1.1914000000000E-04
(PID.TID 0000.0001) %MON surfExpanfCoriG_mean         =  -1.1390240000000E-04
(PID.TID 0000.0001) %MON surfExpanfCoriG_sd           =   3.7035424771427E-06
(PID.TID 0000.0001) %MON surfExpanfCoriCos_max        =   0.0000000000000E+00
(PID.TID 0000.0001) %MON surfExpanfCoriCos_min        =   0.0000000000000E+00
(PID.TID 0000.0001) %MON surfExpanfCoriCos_mean       =   0.0000000000000E+00
(PID.TID 0000.0001) %MON surfExpanfCoriCos_sd         =   0.0000000000000E+00
(PID.TID 0000.0001) INI_CG2D: CG2D normalisation factor =  1.9999999999999996E-04
(PID.TID 0000.0001) 
                     ctrl_depth_ini: ctrl update R_low,
                                     adding the control vector.
(PID.TID 0000.0001)  MDSREADFIELD: opening file: xx_depth.0000000000.001.001.data
(PID.TID 0000.0001) // =======================================================
(PID.TID 0000.0001) // Field Model Ro_surf (update_masks_etc) at iteration          1
(PID.TID 0000.0001) // CMIN =          2.273736754432321E-13
(PID.TID 0000.0001) // CMAX =          2.273736754432321E-13
(PID.TID 0000.0001) // CINT =          0.000000000000000E+00
(PID.TID 0000.0001) // SYMBOLS (CMIN->CMAX): -abcdefghijklmnopqrstuvwxyz+
(PID.TID 0000.0001) //                  0.0: .
(PID.TID 0000.0001) // RANGE I (Lo:Hi:Step):(  -1:   7:   1)
(PID.TID 0000.0001) // RANGE J (Lo:Hi:Step):(   7:  -1:  -1)
(PID.TID 0000.0001) // RANGE K (Lo:Hi:Step):(   1:   1:   1)
(PID.TID 0000.0001) // =======================================================
(PID.TID 0000.0001) // =======================================================
(PID.TID 0000.0001) // END OF FIELD                                          =
(PID.TID 0000.0001) // =======================================================
(PID.TID 0000.0001) 
(PID.TID 0000.0001) // =======================================================
(PID.TID 0000.0001) // Field hFacC at iteration          1
(PID.TID 0000.0001) // CMIN =          1.000000000000000E+00
(PID.TID 0000.0001) // CMAX =          1.000000000000000E+00
(PID.TID 0000.0001) // CINT =          0.000000000000000E+00
(PID.TID 0000.0001) // SYMBOLS (CMIN->CMAX): -abcdefghijklmnopqrstuvwxyz+
(PID.TID 0000.0001) //                  0.0: .
(PID.TID 0000.0001) // RANGE I (Lo:Hi:Step):(  -1:   7:   1)
(PID.TID 0000.0001) // RANGE J (Lo:Hi:Step):(   7:  -1:  -1)
(PID.TID 0000.0001) // RANGE K (Lo:Hi:Step):(   1:   1:   1)
(PID.TID 0000.0001) // =======================================================
(PID.TID 0000.0001) // =======================================================
(PID.TID 0000.0001) // END OF FIELD                                          =
(PID.TID 0000.0001) // =======================================================
(PID.TID 0000.0001) 
(PID.TID 0000.0001) // =======================================================
(PID.TID 0000.0001) // Field hFacW at iteration          1
(PID.TID 0000.0001) // CMIN =          1.000000000000000E+00
(PID.TID 0000.0001) // CMAX =          1.000000000000000E+00
(PID.TID 0000.0001) // CINT =          0.000000000000000E+00
(PID.TID 0000.0001) // SYMBOLS (CMIN->CMAX): -abcdefghijklmnopqrstuvwxyz+
(PID.TID 0000.0001) //                  0.0: .
(PID.TID 0000.0001) // RANGE I (Lo:Hi:Step):(  -1:   7:   1)
(PID.TID 0000.0001) // RANGE J (Lo:Hi:Step):(   7:  -1:  -1)
(PID.TID 0000.0001) // RANGE K (Lo:Hi:Step):(   1:   1:   1)
(PID.TID 0000.0001) // =======================================================
(PID.TID 0000.0001) // =======================================================
(PID.TID 0000.0001) // END OF FIELD                                          =
(PID.TID 0000.0001) // =======================================================
(PID.TID 0000.0001) 
(PID.TID 0000.0001) // =======================================================
(PID.TID 0000.0001) // Field hFacS at iteration          1
(PID.TID 0000.0001) // CMIN =          1.000000000000000E+00
(PID.TID 0000.0001) // CMAX =          1.000000000000000E+00
(PID.TID 0000.0001) // CINT =          0.000000000000000E+00
(PID.TID 0000.0001) // SYMBOLS (CMIN->CMAX): -abcdefghijklmnopqrstuvwxyz+
(PID.TID 0000.0001) //                  0.0: .
(PID.TID 0000.0001) // RANGE I (Lo:Hi:Step):(  -1:   7:   1)
(PID.TID 0000.0001) // RANGE J (Lo:Hi:Step):(   7:  -1:  -1)
(PID.TID 0000.0001) // RANGE K (Lo:Hi:Step):(   1:   1:   1)
(PID.TID 0000.0001) // =======================================================
(PID.TID 0000.0001) // =======================================================
(PID.TID 0000.0001) // END OF FIELD                                          =
(PID.TID 0000.0001) // =======================================================
(PID.TID 0000.0001) 
(PID.TID 0000.0001) // =======================================================
(PID.TID 0000.0001) // Field Initial Temperature at iteration          1
(PID.TID 0000.0001) // CMIN =          4.000000000000000E+00
(PID.TID 0000.0001) // CMAX =          4.000000000000000E+00
(PID.TID 0000.0001) // CINT =          0.000000000000000E+00
(PID.TID 0000.0001) // SYMBOLS (CMIN->CMAX): -abcdefghijklmnopqrstuvwxyz+
(PID.TID 0000.0001) //                  0.0: .
(PID.TID 0000.0001) // RANGE I (Lo:Hi:Step):(   1:   5:   1)
(PID.TID 0000.0001) // RANGE J (Lo:Hi:Step):(   5:   1:  -1)
(PID.TID 0000.0001) // RANGE K (Lo:Hi:Step):(   1:   1:   1)
(PID.TID 0000.0001) // =======================================================
(PID.TID 0000.0001) // =======================================================
(PID.TID 0000.0001) // END OF FIELD                                          =
(PID.TID 0000.0001) // =======================================================
(PID.TID 0000.0001) 
(PID.TID 0000.0001) // =======================================================
(PID.TID 0000.0001) // Field Initial Salinity at iteration          1
(PID.TID 0000.0001) // CMIN =          3.500000000000000E+01
(PID.TID 0000.0001) // CMAX =          3.500000000000000E+01
(PID.TID 0000.0001) // CINT =          0.000000000000000E+00
(PID.TID 0000.0001) // SYMBOLS (CMIN->CMAX): -abcdefghijklmnopqrstuvwxyz+
(PID.TID 0000.0001) //                  0.0: .
(PID.TID 0000.0001) // RANGE I (Lo:Hi:Step):(   1:   5:   1)
(PID.TID 0000.0001) // RANGE J (Lo:Hi:Step):(   5:   1:  -1)
(PID.TID 0000.0001) // RANGE K (Lo:Hi:Step):(   1:   1:   1)
(PID.TID 0000.0001) // =======================================================
(PID.TID 0000.0001) // =======================================================
(PID.TID 0000.0001) // END OF FIELD                                          =
(PID.TID 0000.0001) // =======================================================
(PID.TID 0000.0001) 
(PID.TID 0000.0001) Start initial hydrostatic pressure computation
(PID.TID 0000.0001) Pressure is predetermined for buoyancyRelation OCEANIC
(PID.TID 0000.0001) 
(PID.TID 0000.0001)  MDSREADFIELD: opening global file: windx.sin_y
(PID.TID 0000.0001) // =======================================================
(PID.TID 0000.0001) // Model current state
(PID.TID 0000.0001) // =======================================================
(PID.TID 0000.0001) 
 cg2d: Sum(rhs),rhsMax =   0.00000000000000E+00  0.00000000000000E+00
 cg2d: Sum(rhs),rhsMax =   4.68375338513738E-16  2.62483626325265E-03
 cg2d: Sum(rhs),rhsMax =   7.39859562504108E-16  5.13362633360820E-03
 cg2d: Sum(rhs),rhsMax =   1.08420217248550E-16  7.16168459075515E-03
 cg2d: Sum(rhs),rhsMax =   3.05311331771918E-16  9.29466755604316E-03
 cg2d: Sum(rhs),rhsMax =  -1.94289029309402E-16  1.15304356747150E-02
 cg2d: Sum(rhs),rhsMax =  -2.74519990073330E-16  1.37809802296038E-02
 cg2d: Sum(rhs),rhsMax =   3.95516952522712E-16  1.60011247409649E-02
 cg2d: Sum(rhs),rhsMax =   6.93889390390723E-17  1.82027338307179E-02
 cg2d: Sum(rhs),rhsMax =   4.44089209850063E-16  2.04493561318635E-02
 cg2d: Sum(rhs),rhsMax =   9.71445146547012E-17  2.25706028221379E-02
 cg2d: Sum(rhs),rhsMax =   1.38777878078145E-17  2.45301657664331E-02
 cg2d: Sum(rhs),rhsMax =  -9.71445146547012E-17  2.63097944887262E-02
 cg2d: Sum(rhs),rhsMax =   1.52655665885959E-16  2.79110497737258E-02
 cg2d: Sum(rhs),rhsMax =  -4.57966997657877E-16  2.93538602918495E-02
 cg2d: Sum(rhs),rhsMax =  -6.24500451351651E-16  3.06720439675129E-02
 cg2d: Sum(rhs),rhsMax =  -7.28583859910259E-16  3.19067817231181E-02
 cg2d: Sum(rhs),rhsMax =  -1.02001740387436E-15  3.30992668344596E-02
 cg2d: Sum(rhs),rhsMax =  -9.29811783123569E-16  3.42837433663523E-02
 cg2d: Sum(rhs),rhsMax =  -1.18655085756814E-15  3.54819651751124E-02
 cg2d: Sum(rhs),rhsMax =  -4.23272528138341E-16  3.66998059600249E-02
 cg2d: Sum(rhs),rhsMax =   5.68989300120393E-16  3.79264046838685E-02
 cg2d: Sum(rhs),rhsMax =   9.78384040450919E-16  3.91358859927092E-02
 cg2d: Sum(rhs),rhsMax =   9.02056207507940E-16  4.02913641008619E-02
 cg2d: Sum(rhs),rhsMax =   6.38378239159465E-16  4.13506296622325E-02
 cg2d: Sum(rhs),rhsMax =   5.55111512312578E-16  4.22726608834983E-02
 cg2d: Sum(rhs),rhsMax =   3.60822483003176E-16  4.30239437604480E-02
 cg2d: Sum(rhs),rhsMax =   5.55111512312578E-16  4.35835864783964E-02
 cg2d: Sum(rhs),rhsMax =   4.16333634234434E-16  4.39463981247353E-02
 cg2d: Sum(rhs),rhsMax =   7.35522753814166E-16  4.41234517565052E-02
 cg2d: Sum(rhs),rhsMax =   2.35922392732846E-16  4.41400965362484E-02
 cg2d: Sum(rhs),rhsMax =  -3.46944695195361E-16  4.40318244633635E-02
 cg2d: Sum(rhs),rhsMax =  -4.16333634234434E-16  4.38387400974364E-02
 cg2d: Sum(rhs),rhsMax =  -4.16333634234434E-16  4.54379559863209E-02
 cg2d: Sum(rhs),rhsMax =  -4.71844785465692E-16  4.77259341113198E-02
 cg2d: Sum(rhs),rhsMax =  -2.08166817117217E-16  4.99949942543791E-02
 cg2d: Sum(rhs),rhsMax =  -6.66133814775094E-16  5.22073346038227E-02
 cg2d: Sum(rhs),rhsMax =  -9.71445146547012E-16  5.43317154839895E-02
 cg2d: Sum(rhs),rhsMax =  -9.71445146547012E-16  5.63476434186013E-02
 cg2d: Sum(rhs),rhsMax =  -1.30451205393456E-15  5.82478247421673E-02
 cg2d: Sum(rhs),rhsMax =  -1.16573417585641E-15  6.00385227391978E-02
 cg2d: Sum(rhs),rhsMax =  -1.30451205393456E-15  6.17377929118976E-02
 cg2d: Sum(rhs),rhsMax =  -1.63757896132211E-15  6.33719182888676E-02
 cg2d: Sum(rhs),rhsMax =  -1.58206781009085E-15  6.49706561710851E-02
 cg2d: Sum(rhs),rhsMax =  -1.55431223447522E-15  6.65620855188798E-02
 cg2d: Sum(rhs),rhsMax =  -5.82867087928207E-16  6.81678812450966E-02
 cg2d: Sum(rhs),rhsMax =  -4.16333634234434E-16  6.97997396647969E-02
 cg2d: Sum(rhs),rhsMax =  -5.55111512312578E-17  7.14574668115130E-02
 cg2d: Sum(rhs),rhsMax =   2.22044604925031E-16  7.31289628822747E-02
 cg2d: Sum(rhs),rhsMax =   2.49800180540660E-16  7.47920400693221E-02
 cg2d: Sum(rhs),rhsMax =   2.77555756156289E-17  7.64177405219936E-02
 cg2d: Sum(rhs),rhsMax =  -1.66533453693773E-16  7.79746099717139E-02
 cg2d: Sum(rhs),rhsMax =  -5.55111512312578E-17  7.94332549585650E-02
 cg2d: Sum(rhs),rhsMax =   2.49800180540660E-16  8.07704828101510E-02
 cg2d: Sum(rhs),rhsMax =   2.49800180540660E-16  8.19723984069496E-02
 cg2d: Sum(rhs),rhsMax =   4.71844785465692E-16  8.30360020770571E-02
 cg2d: Sum(rhs),rhsMax =   9.57567358739198E-16  8.39690750704316E-02
 cg2d: Sum(rhs),rhsMax =   9.99200722162641E-16  8.47884149164555E-02
 cg2d: Sum(rhs),rhsMax =   1.06858966120171E-15  8.55167457737709E-02
 cg2d: Sum(rhs),rhsMax =   1.09634523681734E-15  8.61788326768533E-02
 cg2d: Sum(rhs),rhsMax =   4.02455846426619E-16  8.67974387473228E-02
 cg2d: Sum(rhs),rhsMax =   5.82867087928207E-16  8.73897654097801E-02
 cg2d: Sum(rhs),rhsMax =   1.66533453693773E-16  8.79649132532595E-02
 cg2d: Sum(rhs),rhsMax =   0.00000000000000E+00  8.85227192056545E-02
 cg2d: Sum(rhs),rhsMax =  -3.74700270810990E-16  8.90540987366600E-02
 cg2d: Sum(rhs),rhsMax =  -9.71445146547012E-17  8.95427873582482E-02
 cg2d: Sum(rhs),rhsMax =  -1.80411241501588E-16  8.99681679512191E-02
 cg2d: Sum(rhs),rhsMax =   1.66533453693773E-16  9.03087168034298E-02
 cg2d: Sum(rhs),rhsMax =   6.24500451351651E-17  9.05455207251963E-02
 cg2d: Sum(rhs),rhsMax =   4.51028103753970E-16  9.06653199576383E-02
 cg2d: Sum(rhs),rhsMax =   3.67761376907083E-16  9.06626161638836E-02
 cg2d: Sum(rhs),rhsMax =   4.99600361081320E-16  9.05405394773544E-02
 cg2d: Sum(rhs),rhsMax =   8.53483950180589E-16  9.03103699054291E-02
 cg2d: Sum(rhs),rhsMax =   6.97358837342676E-16  8.99898240211605E-02
 cg2d: Sum(rhs),rhsMax =   1.18828558104411E-15  8.96004118609240E-02
 cg2d: Sum(rhs),rhsMax =   1.06306023012204E-15  8.91643086908341E-02
 cg2d: Sum(rhs),rhsMax =   1.18655085756814E-15  8.87012493716522E-02
 cg2d: Sum(rhs),rhsMax =   1.32879818259823E-15  8.82259315978825E-02
 cg2d: Sum(rhs),rhsMax =   8.70831184940357E-16  8.77463158602741E-02
 cg2d: Sum(rhs),rhsMax =   9.05525654459893E-16  8.72630547495716E-02
 cg2d: Sum(rhs),rhsMax =   1.05471187339390E-15  8.67700999193263E-02
 cg2d: Sum(rhs),rhsMax =   7.97972798949331E-16  8.62563514147707E-02
 cg2d: Sum(rhs),rhsMax =   1.06858966120171E-15  8.57080583067248E-02
 cg2d: Sum(rhs),rhsMax =   8.50014503228635E-16  8.51115730488093E-02
 cg2d: Sum(rhs),rhsMax =   9.90527104782757E-16  8.44560184714405E-02
 cg2d: Sum(rhs),rhsMax =   1.14318277066872E-15  8.37354508266909E-02
 cg2d: Sum(rhs),rhsMax =   1.11716191852906E-15  8.29501903583683E-02
 cg2d: Sum(rhs),rhsMax =   1.38864614251943E-15  8.21071286810548E-02
 cg2d: Sum(rhs),rhsMax =   1.13277442981286E-15  8.12189879808515E-02
 cg2d: Sum(rhs),rhsMax =   1.06078340555982E-15  8.03026738704296E-02
 cg2d: Sum(rhs),rhsMax =   1.33226762955019E-15  7.93770043120620E-02
 cg2d: Sum(rhs),rhsMax =   8.22258927613007E-16  7.84601886169499E-02
 cg2d: Sum(rhs),rhsMax =   1.27849120179491E-15  7.75674593112235E-02
 cg2d: Sum(rhs),rhsMax =   1.58900670399476E-15  7.67092231168501E-02
 cg2d: Sum(rhs),rhsMax =   1.65145674912992E-15  7.58900040997087E-02
 cg2d: Sum(rhs),rhsMax =   1.61676227961038E-15  7.51083196419307E-02
 cg2d: Sum(rhs),rhsMax =   1.49186218934005E-15  7.43574807785496E-02
 cg2d: Sum(rhs),rhsMax =   1.94982918699793E-15  7.36271660737269E-02
 cg2d: Sum(rhs),rhsMax =   2.31065167000111E-15  7.29055036043870E-02
 cg2d: Sum(rhs),rhsMax =   2.52575738102223E-15  7.21813247522530E-02
 --> objf_test(bi,bj)   = -0.849803596201589E+00
 --> objf_tracer(bi,bj) =  0.000000000000000E+00
 --> objf_atl(bi,bj)    =  0.000000000000000E+00
  local fc = -0.849803596201589E+00
 global fc = -0.849803596201589E+00
 ph-check fcpertplus =  -0.849803596
(PID.TID 0000.0001)  MDSREADFIELD: opening file: xx_depth.0000000000.001.001.data
 ph-check fcpertminus =  -0.849803598
(PID.TID 0000.0001)  MDSREADFIELD: opening file: xx_depth.0000000000.001.001.data
(PID.TID 0000.0001)  MDSREADFIELD: opening global file: walls.bigRidge
(PID.TID 0000.0001) // =======================================================
(PID.TID 0000.0001) // Field Bottom depths (ini_depths) at iteration          1
(PID.TID 0000.0001) // CMIN =         -5.000000000000000E+03
(PID.TID 0000.0001) // CMAX =         -2.000000000000000E+03
(PID.TID 0000.0001) // CINT =          1.111111111111111E+02
(PID.TID 0000.0001) // SYMBOLS (CMIN->CMAX): -abcdefghijklmnopqrstuvwxyz+
(PID.TID 0000.0001) //                  0.0: .
(PID.TID 0000.0001) // RANGE I (Lo:Hi:Step):(  -1:   7:   1)
(PID.TID 0000.0001) // RANGE J (Lo:Hi:Step):(   7:  -1:  -1)
(PID.TID 0000.0001) // RANGE K (Lo:Hi:Step):(   1:   1:   1)
(PID.TID 0000.0001) // =======================================================
(PID.TID 0000.0001) K =   1
(PID.TID 0000.0001) //
(PID.TID 0000.0001) // |--J--|*01234567
(PID.TID 0000.0001) //      7 ----+----
(PID.TID 0000.0001) //      6 .........
(PID.TID 0000.0001) //      5 ----+----
(PID.TID 0000.0001) //      4 ----+----
(PID.TID 0000.0001) //      3 ----+----
(PID.TID 0000.0001) //      2 ----+----
(PID.TID 0000.0001) //      1 .........
(PID.TID 0000.0001) //      0 ----+----
(PID.TID 0000.0001) //     -1 ----+----
(PID.TID 0000.0001) // =======================================================
(PID.TID 0000.0001) // END OF FIELD                                          =
(PID.TID 0000.0001) // =======================================================
(PID.TID 0000.0001) 
(PID.TID 0000.0001) // =======================================================
(PID.TID 0000.0001) // Field Model R_low (ini_masks_etc) at iteration          1
(PID.TID 0000.0001) // CMIN =         -5.000000000000000E+03
(PID.TID 0000.0001) // CMAX =         -2.000000000000000E+03
(PID.TID 0000.0001) // CINT =          1.111111111111111E+02
(PID.TID 0000.0001) // SYMBOLS (CMIN->CMAX): -abcdefghijklmnopqrstuvwxyz+
(PID.TID 0000.0001) //                  0.0: .
(PID.TID 0000.0001) // RANGE I (Lo:Hi:Step):(  -1:   7:   1)
(PID.TID 0000.0001) // RANGE J (Lo:Hi:Step):(   7:  -1:  -1)
(PID.TID 0000.0001) // RANGE K (Lo:Hi:Step):(   1:   1:   1)
(PID.TID 0000.0001) // =======================================================
(PID.TID 0000.0001) K =   1
(PID.TID 0000.0001) //
(PID.TID 0000.0001) // |--J--|*01234567
(PID.TID 0000.0001) //      7 ----+----
(PID.TID 0000.0001) //      6 .........
(PID.TID 0000.0001) //      5 ----+----
(PID.TID 0000.0001) //      4 ----+----
(PID.TID 0000.0001) //      3 ----+----
(PID.TID 0000.0001) //      2 ----+----
(PID.TID 0000.0001) //      1 .........
(PID.TID 0000.0001) //      0 ----+----
(PID.TID 0000.0001) //     -1 ----+----
(PID.TID 0000.0001) // =======================================================
(PID.TID 0000.0001) // END OF FIELD                                          =
(PID.TID 0000.0001) // =======================================================
(PID.TID 0000.0001) 
(PID.TID 0000.0001) // =======================================================
(PID.TID 0000.0001) // Field Model Ro_surf (ini_masks_etc) at iteration          1
(PID.TID 0000.0001) // CMIN =          2.273736754432321E-13
(PID.TID 0000.0001) // CMAX =          2.273736754432321E-13
(PID.TID 0000.0001) // CINT =          0.000000000000000E+00
(PID.TID 0000.0001) // SYMBOLS (CMIN->CMAX): -abcdefghijklmnopqrstuvwxyz+
(PID.TID 0000.0001) //                  0.0: .
(PID.TID 0000.0001) // RANGE I (Lo:Hi:Step):(  -1:   7:   1)
(PID.TID 0000.0001) // RANGE J (Lo:Hi:Step):(   7:  -1:  -1)
(PID.TID 0000.0001) // RANGE K (Lo:Hi:Step):(   1:   1:   1)
(PID.TID 0000.0001) // =======================================================
(PID.TID 0000.0001) // =======================================================
(PID.TID 0000.0001) // END OF FIELD                                          =
(PID.TID 0000.0001) // =======================================================
(PID.TID 0000.0001) 
(PID.TID 0000.0001) // =======================================================
(PID.TID 0000.0001) // Field hFacC at iteration          1
(PID.TID 0000.0001) // CMIN =          1.000000000000000E+00
(PID.TID 0000.0001) // CMAX =          1.000000000000000E+00
(PID.TID 0000.0001) // CINT =          0.000000000000000E+00
(PID.TID 0000.0001) // SYMBOLS (CMIN->CMAX): -abcdefghijklmnopqrstuvwxyz+
(PID.TID 0000.0001) //                  0.0: .
(PID.TID 0000.0001) // RANGE I (Lo:Hi:Step):(  -1:   7:   1)
(PID.TID 0000.0001) // RANGE J (Lo:Hi:Step):(   7:  -1:  -1)
(PID.TID 0000.0001) // RANGE K (Lo:Hi:Step):(   1:   1:   1)
(PID.TID 0000.0001) // =======================================================
(PID.TID 0000.0001) // =======================================================
(PID.TID 0000.0001) // END OF FIELD                                          =
(PID.TID 0000.0001) // =======================================================
(PID.TID 0000.0001) 
(PID.TID 0000.0001) // =======================================================
(PID.TID 0000.0001) // Field hFacW at iteration          1
(PID.TID 0000.0001) // CMIN =          1.000000000000000E+00
(PID.TID 0000.0001) // CMAX =          1.000000000000000E+00
(PID.TID 0000.0001) // CINT =          0.000000000000000E+00
(PID.TID 0000.0001) // SYMBOLS (CMIN->CMAX): -abcdefghijklmnopqrstuvwxyz+
(PID.TID 0000.0001) //                  0.0: .
(PID.TID 0000.0001) // RANGE I (Lo:Hi:Step):(  -1:   7:   1)
(PID.TID 0000.0001) // RANGE J (Lo:Hi:Step):(   7:  -1:  -1)
(PID.TID 0000.0001) // RANGE K (Lo:Hi:Step):(   1:   1:   1)
(PID.TID 0000.0001) // =======================================================
(PID.TID 0000.0001) // =======================================================
(PID.TID 0000.0001) // END OF FIELD                                          =
(PID.TID 0000.0001) // =======================================================
(PID.TID 0000.0001) 
(PID.TID 0000.0001) // =======================================================
(PID.TID 0000.0001) // Field hFacS at iteration          1
(PID.TID 0000.0001) // CMIN =          1.000000000000000E+00
(PID.TID 0000.0001) // CMAX =          1.000000000000000E+00
(PID.TID 0000.0001) // CINT =          0.000000000000000E+00
(PID.TID 0000.0001) // SYMBOLS (CMIN->CMAX): -abcdefghijklmnopqrstuvwxyz+
(PID.TID 0000.0001) //                  0.0: .
(PID.TID 0000.0001) // RANGE I (Lo:Hi:Step):(  -1:   7:   1)
(PID.TID 0000.0001) // RANGE J (Lo:Hi:Step):(   7:  -1:  -1)
(PID.TID 0000.0001) // RANGE K (Lo:Hi:Step):(   1:   1:   1)
(PID.TID 0000.0001) // =======================================================
(PID.TID 0000.0001) // =======================================================
(PID.TID 0000.0001) // END OF FIELD                                          =
(PID.TID 0000.0001) // =======================================================
(PID.TID 0000.0001) 
(PID.TID 0000.0001) %MON surfExpanfCori_max           =  -1.0735540000000E-04
(PID.TID 0000.0001) %MON surfExpanfCori_min           =  -1.1783060000000E-04
(PID.TID 0000.0001) %MON surfExpanfCori_mean          =  -1.1259300000000E-04
(PID.TID 0000.0001) %MON surfExpanfCori_sd            =   3.7035424771427E-06
(PID.TID 0000.0001) %MON surfExpanfCoriG_max          =  -1.0866480000000E-04
(PID.TID 0000.0001) %MON surfExpanfCoriG_min          =  -1.1914000000000E-04
(PID.TID 0000.0001) %MON surfExpanfCoriG_mean         =  -1.1390240000000E-04
(PID.TID 0000.0001) %MON surfExpanfCoriG_sd           =   3.7035424771427E-06
(PID.TID 0000.0001) %MON surfExpanfCoriCos_max        =   0.0000000000000E+00
(PID.TID 0000.0001) %MON surfExpanfCoriCos_min        =   0.0000000000000E+00
(PID.TID 0000.0001) %MON surfExpanfCoriCos_mean       =   0.0000000000000E+00
(PID.TID 0000.0001) %MON surfExpanfCoriCos_sd         =   0.0000000000000E+00
(PID.TID 0000.0001) INI_CG2D: CG2D normalisation factor =  1.9999999999999996E-04
(PID.TID 0000.0001) 
                     ctrl_depth_ini: ctrl update R_low,
                                     adding the control vector.
(PID.TID 0000.0001)  MDSREADFIELD: opening file: xx_depth.0000000000.001.001.data
(PID.TID 0000.0001) // =======================================================
(PID.TID 0000.0001) // Field Model Ro_surf (update_masks_etc) at iteration          1
(PID.TID 0000.0001) // CMIN =          2.273736754432321E-13
(PID.TID 0000.0001) // CMAX =          2.273736754432321E-13
(PID.TID 0000.0001) // CINT =          0.000000000000000E+00
(PID.TID 0000.0001) // SYMBOLS (CMIN->CMAX): -abcdefghijklmnopqrstuvwxyz+
(PID.TID 0000.0001) //                  0.0: .
(PID.TID 0000.0001) // RANGE I (Lo:Hi:Step):(  -1:   7:   1)
(PID.TID 0000.0001) // RANGE J (Lo:Hi:Step):(   7:  -1:  -1)
(PID.TID 0000.0001) // RANGE K (Lo:Hi:Step):(   1:   1:   1)
(PID.TID 0000.0001) // =======================================================
(PID.TID 0000.0001) // =======================================================
(PID.TID 0000.0001) // END OF FIELD                                          =
(PID.TID 0000.0001) // =======================================================
(PID.TID 0000.0001) 
(PID.TID 0000.0001) // =======================================================
(PID.TID 0000.0001) // Field hFacC at iteration          1
(PID.TID 0000.0001) // CMIN =          1.000000000000000E+00
(PID.TID 0000.0001) // CMAX =          1.000000000000000E+00
(PID.TID 0000.0001) // CINT =          0.000000000000000E+00
(PID.TID 0000.0001) // SYMBOLS (CMIN->CMAX): -abcdefghijklmnopqrstuvwxyz+
(PID.TID 0000.0001) //                  0.0: .
(PID.TID 0000.0001) // RANGE I (Lo:Hi:Step):(  -1:   7:   1)
(PID.TID 0000.0001) // RANGE J (Lo:Hi:Step):(   7:  -1:  -1)
(PID.TID 0000.0001) // RANGE K (Lo:Hi:Step):(   1:   1:   1)
(PID.TID 0000.0001) // =======================================================
(PID.TID 0000.0001) // =======================================================
(PID.TID 0000.0001) // END OF FIELD                                          =
(PID.TID 0000.0001) // =======================================================
(PID.TID 0000.0001) 
(PID.TID 0000.0001) // =======================================================
(PID.TID 0000.0001) // Field hFacW at iteration          1
(PID.TID 0000.0001) // CMIN =          1.000000000000000E+00
(PID.TID 0000.0001) // CMAX =          1.000000000000000E+00
(PID.TID 0000.0001) // CINT =          0.000000000000000E+00
(PID.TID 0000.0001) // SYMBOLS (CMIN->CMAX): -abcdefghijklmnopqrstuvwxyz+
(PID.TID 0000.0001) //                  0.0: .
(PID.TID 0000.0001) // RANGE I (Lo:Hi:Step):(  -1:   7:   1)
(PID.TID 0000.0001) // RANGE J (Lo:Hi:Step):(   7:  -1:  -1)
(PID.TID 0000.0001) // RANGE K (Lo:Hi:Step):(   1:   1:   1)
(PID.TID 0000.0001) // =======================================================
(PID.TID 0000.0001) // =======================================================
(PID.TID 0000.0001) // END OF FIELD                                          =
(PID.TID 0000.0001) // =======================================================
(PID.TID 0000.0001) 
(PID.TID 0000.0001) // =======================================================
(PID.TID 0000.0001) // Field hFacS at iteration          1
(PID.TID 0000.0001) // CMIN =          1.000000000000000E+00
(PID.TID 0000.0001) // CMAX =          1.000000000000000E+00
(PID.TID 0000.0001) // CINT =          0.000000000000000E+00
(PID.TID 0000.0001) // SYMBOLS (CMIN->CMAX): -abcdefghijklmnopqrstuvwxyz+
(PID.TID 0000.0001) //                  0.0: .
(PID.TID 0000.0001) // RANGE I (Lo:Hi:Step):(  -1:   7:   1)
(PID.TID 0000.0001) // RANGE J (Lo:Hi:Step):(   7:  -1:  -1)
(PID.TID 0000.0001) // RANGE K (Lo:Hi:Step):(   1:   1:   1)
(PID.TID 0000.0001) // =======================================================
(PID.TID 0000.0001) // =======================================================
(PID.TID 0000.0001) // END OF FIELD                                          =
(PID.TID 0000.0001) // =======================================================
(PID.TID 0000.0001) 
(PID.TID 0000.0001) // =======================================================
(PID.TID 0000.0001) // Field Initial Temperature at iteration          1
(PID.TID 0000.0001) // CMIN =          4.000000000000000E+00
(PID.TID 0000.0001) // CMAX =          4.000000000000000E+00
(PID.TID 0000.0001) // CINT =          0.000000000000000E+00
(PID.TID 0000.0001) // SYMBOLS (CMIN->CMAX): -abcdefghijklmnopqrstuvwxyz+
(PID.TID 0000.0001) //                  0.0: .
(PID.TID 0000.0001) // RANGE I (Lo:Hi:Step):(   1:   5:   1)
(PID.TID 0000.0001) // RANGE J (Lo:Hi:Step):(   5:   1:  -1)
(PID.TID 0000.0001) // RANGE K (Lo:Hi:Step):(   1:   1:   1)
(PID.TID 0000.0001) // =======================================================
(PID.TID 0000.0001) // =======================================================
(PID.TID 0000.0001) // END OF FIELD                                          =
(PID.TID 0000.0001) // =======================================================
(PID.TID 0000.0001) 
(PID.TID 0000.0001) // =======================================================
(PID.TID 0000.0001) // Field Initial Salinity at iteration          1
(PID.TID 0000.0001) // CMIN =          3.500000000000000E+01
(PID.TID 0000.0001) // CMAX =          3.500000000000000E+01
(PID.TID 0000.0001) // CINT =          0.000000000000000E+00
(PID.TID 0000.0001) // SYMBOLS (CMIN->CMAX): -abcdefghijklmnopqrstuvwxyz+
(PID.TID 0000.0001) //                  0.0: .
(PID.TID 0000.0001) // RANGE I (Lo:Hi:Step):(   1:   5:   1)
(PID.TID 0000.0001) // RANGE J (Lo:Hi:Step):(   5:   1:  -1)
(PID.TID 0000.0001) // RANGE K (Lo:Hi:Step):(   1:   1:   1)
(PID.TID 0000.0001) // =======================================================
(PID.TID 0000.0001) // =======================================================
(PID.TID 0000.0001) // END OF FIELD                                          =
(PID.TID 0000.0001) // =======================================================
(PID.TID 0000.0001) 
(PID.TID 0000.0001) Start initial hydrostatic pressure computation
(PID.TID 0000.0001) Pressure is predetermined for buoyancyRelation OCEANIC
(PID.TID 0000.0001) 
(PID.TID 0000.0001)  MDSREADFIELD: opening global file: windx.sin_y
(PID.TID 0000.0001) // =======================================================
(PID.TID 0000.0001) // Model current state
(PID.TID 0000.0001) // =======================================================
(PID.TID 0000.0001) 
 cg2d: Sum(rhs),rhsMax =   0.00000000000000E+00  0.00000000000000E+00
 cg2d: Sum(rhs),rhsMax =   4.68375338513738E-16  2.62483626325265E-03
 cg2d: Sum(rhs),rhsMax =   7.32920668600201E-16  5.13362633360820E-03
 cg2d: Sum(rhs),rhsMax =   6.67868538251071E-16  7.16168459486100E-03
 cg2d: Sum(rhs),rhsMax =  -3.03576608295941E-16  9.29466756367711E-03
 cg2d: Sum(rhs),rhsMax =   2.87964097012150E-16  1.15304356847871E-02
 cg2d: Sum(rhs),rhsMax =   1.99059518868339E-16  1.37809802411702E-02
 cg2d: Sum(rhs),rhsMax =   1.73472347597681E-16  1.60011247528928E-02
 cg2d: Sum(rhs),rhsMax =  -9.02056207507940E-17  1.82027337517273E-02
 cg2d: Sum(rhs),rhsMax =  -3.88578058618805E-16  2.04493560424467E-02
 cg2d: Sum(rhs),rhsMax =   1.24900090270330E-16  2.25706027256818E-02
 cg2d: Sum(rhs),rhsMax =  -4.30211422042248E-16  2.45301656659709E-02
 cg2d: Sum(rhs),rhsMax =   2.77555756156289E-16  2.63097943862590E-02
 cg2d: Sum(rhs),rhsMax =   9.99200722162641E-16  2.79110496697027E-02
 cg2d: Sum(rhs),rhsMax =   1.61676227961038E-15  2.93538601848832E-02
 cg2d: Sum(rhs),rhsMax =   8.11850586757146E-16  3.06720438543717E-02
 cg2d: Sum(rhs),rhsMax =   6.31439345255558E-16  3.19067815989890E-02
 cg2d: Sum(rhs),rhsMax =   1.06165076729781E-15  3.30992666934401E-02
 cg2d: Sum(rhs),rhsMax =   5.75928194024300E-16  3.42837432020879E-02
 cg2d: Sum(rhs),rhsMax =   1.08246744900953E-15  3.54819649814828E-02
 cg2d: Sum(rhs),rhsMax =   1.83880688453542E-15  3.66998057317696E-02
 cg2d: Sum(rhs),rhsMax =   1.70002900645727E-15  3.79264044170594E-02
 cg2d: Sum(rhs),rhsMax =   1.59594559789866E-15  3.91358856850030E-02
 cg2d: Sum(rhs),rhsMax =   1.77635683940025E-15  4.02913637514983E-02
 cg2d: Sum(rhs),rhsMax =   6.38378239159465E-16  4.13506292717895E-02
 cg2d: Sum(rhs),rhsMax =   8.18789480661053E-16  4.22726604534499E-02
 cg2d: Sum(rhs),rhsMax =   8.74300631892311E-16  4.30239432926007E-02
 cg2d: Sum(rhs),rhsMax =   9.15933995315754E-16  4.35835859742961E-02
 cg2d: Sum(rhs),rhsMax =   1.05471187339390E-15  4.39463975851390E-02
 cg2d: Sum(rhs),rhsMax =   1.88737914186277E-15  4.41234511809992E-02
 cg2d: Sum(rhs),rhsMax =   2.01227923213310E-15  4.41400959230685E-02
 cg2d: Sum(rhs),rhsMax =   2.15105711021124E-15  4.40318238094405E-02
 cg2d: Sum(rhs),rhsMax =   2.22044604925031E-15  4.38387393986555E-02
 cg2d: Sum(rhs),rhsMax =   1.37390099297363E-15  4.54379569005882E-02
 cg2d: Sum(rhs),rhsMax =   2.17881268582687E-15  4.77259350549755E-02
 cg2d: Sum(rhs),rhsMax =   1.81799020282369E-15  4.99949952270593E-02
 cg2d: Sum(rhs),rhsMax =   1.73472347597681E-15  5.22073356059506E-02
 cg2d: Sum(rhs),rhsMax =   1.41553435639707E-15  5.43317165164848E-02
 cg2d: Sum(rhs),rhsMax =   9.57567358739198E-16  5.63476444824954E-02
 cg2d: Sum(rhs),rhsMax =   8.60422844084496E-16  5.82478258381879E-02
 cg2d: Sum(rhs),rhsMax =   1.44328993201270E-15  6.00385238673878E-02
 cg2d: Sum(rhs),rhsMax =   1.24900090270330E-15  6.17377940713272E-02
 cg2d: Sum(rhs),rhsMax =   1.08246744900953E-15  6.33719194774824E-02
 cg2d: Sum(rhs),rhsMax =   7.21644966006352E-16  6.49706573857097E-02
 cg2d: Sum(rhs),rhsMax =   6.10622663543836E-16  6.65620867553737E-02
 cg2d: Sum(rhs),rhsMax =   6.10622663543836E-16  6.81678824986332E-02
 cg2d: Sum(rhs),rhsMax =   2.22044604925031E-16  6.97997409302211E-02
 cg2d: Sum(rhs),rhsMax =  -3.05311331771918E-16  7.14574680837206E-02
 cg2d: Sum(rhs),rhsMax =  -5.27355936696949E-16  7.31289641565547E-02
 cg2d: Sum(rhs),rhsMax =  -2.77555756156289E-17  7.47920413416116E-02
 cg2d: Sum(rhs),rhsMax =   5.55111512312578E-17  7.64177417890111E-02
 cg2d: Sum(rhs),rhsMax =  -1.38777878078145E-16  7.79746112309544E-02
 cg2d: Sum(rhs),rhsMax =  -2.49800180540660E-16  7.94332562081642E-02
 cg2d: Sum(rhs),rhsMax =  -1.94289029309402E-16  8.07704840486469E-02
 cg2d: Sum(rhs),rhsMax =  -1.66533453693773E-16  8.19723996329833E-02
 cg2d: Sum(rhs),rhsMax =  -2.77555756156289E-17  8.30360032890631E-02
 cg2d: Sum(rhs),rhsMax =   2.49800180540660E-16  8.39690762663692E-02
 cg2d: Sum(rhs),rhsMax =   3.74700270810990E-16  8.47884160936248E-02
 cg2d: Sum(rhs),rhsMax =   4.16333634234434E-16  8.55167469287402E-02
 cg2d: Sum(rhs),rhsMax =   5.55111512312578E-16  8.61788338055098E-02
 cg2d: Sum(rhs),rhsMax =   4.30211422042248E-16  8.67974398450363E-02
 cg2d: Sum(rhs),rhsMax =   8.46545056276682E-16  8.73897664716530E-02
 cg2d: Sum(rhs),rhsMax =   7.49400541621981E-16  8.79649142744245E-02
 cg2d: Sum(rhs),rhsMax =   2.35922392732846E-16  8.85227201815730E-02
 cg2d: Sum(rhs),rhsMax =   5.55111512312578E-17  8.90540996633765E-02
 cg2d: Sum(rhs),rhsMax =  -2.63677968348475E-16  8.95427882325644E-02
 cg2d: Sum(rhs),rhsMax =  -3.46944695195361E-16  8.99681687707651E-02
 cg2d: Sum(rhs),rhsMax =  -1.87350135405495E-16  9.03087175666234E-02
 cg2d: Sum(rhs),rhsMax =  -3.05311331771918E-16  9.05455214311058E-02
 cg2d: Sum(rhs),rhsMax =   4.16333634234434E-17  9.06653206057693E-02
 cg2d: Sum(rhs),rhsMax =   6.93889390390723E-17  9.06626167539311E-02
 cg2d: Sum(rhs),rhsMax =   7.84095011141517E-16  9.05405400089590E-02
 cg2d: Sum(rhs),rhsMax =   7.07767178198537E-16  9.03103703779763E-02
 cg2d: Sum(rhs),rhsMax =   5.79397640976254E-16  8.99898244336555E-02
 cg2d: Sum(rhs),rhsMax =   7.47665818146004E-16  8.96004122119587E-02
 cg2d: Sum(rhs),rhsMax =   3.61689844741164E-16  8.91643089786517E-02
 cg2d: Sum(rhs),rhsMax =   6.43582409587395E-16  8.87012495942954E-02
 cg2d: Sum(rhs),rhsMax =   2.91433543964104E-16  8.82259317534008E-02
 cg2d: Sum(rhs),rhsMax =   1.66533453693773E-16  8.77463159469572E-02
 cg2d: Sum(rhs),rhsMax =  -1.59594559789866E-16  8.72630547661720E-02
 cg2d: Sum(rhs),rhsMax =  -1.45716771982052E-16  8.67700998652350E-02
 cg2d: Sum(rhs),rhsMax =   1.07552855510562E-16  8.62563512901221E-02
 cg2d: Sum(rhs),rhsMax =   5.03069808033274E-16  8.57080581124148E-02
 cg2d: Sum(rhs),rhsMax =   7.91033905045424E-16  8.51115727864264E-02
 cg2d: Sum(rhs),rhsMax =   5.74193470548323E-16  8.44560181431224E-02
 cg2d: Sum(rhs),rhsMax =   3.48679418671338E-16  8.37354504349309E-02
 cg2d: Sum(rhs),rhsMax =   5.82867087928207E-16  8.29501899058020E-02
 cg2d: Sum(rhs),rhsMax =   5.19116000186060E-16  8.21071281702600E-02
 cg2d: Sum(rhs),rhsMax =   5.51642065360625E-16  8.12189874141927E-02
 cg2d: Sum(rhs),rhsMax =   7.73686670285656E-16  8.03026732499673E-02
 cg2d: Sum(rhs),rhsMax =   7.99707522425308E-16  7.93770036395390E-02
 cg2d: Sum(rhs),rhsMax =   4.28476698566271E-16  7.84601878938537E-02
 cg2d: Sum(rhs),rhsMax =   3.40005801291454E-16  7.75674585389122E-02
 cg2d: Sum(rhs),rhsMax =   4.51028103753970E-16  7.67092222967179E-02
 cg2d: Sum(rhs),rhsMax =   3.26128013483640E-16  7.58900032333646E-02
 cg2d: Sum(rhs),rhsMax =  -1.38777878078145E-17  7.51083187313595E-02
 cg2d: Sum(rhs),rhsMax =   3.95516952522712E-16  7.43574798262307E-02
 cg2d: Sum(rhs),rhsMax =   1.73472347597681E-16  7.36271650826908E-02
 cg2d: Sum(rhs),rhsMax =   7.35522753814166E-16  7.29055025782022E-02
 cg2d: Sum(rhs),rhsMax =   6.86950496486816E-16  7.21813236949451E-02
 --> objf_test(bi,bj)   = -0.849803599686223E+00
 --> objf_tracer(bi,bj) =  0.000000000000000E+00
 --> objf_atl(bi,bj)    =  0.000000000000000E+00
  local fc = -0.849803599686223E+00
 global fc = -0.849803599686223E+00
(PID.TID 0000.0001)  MDSREADFIELD: opening file: xx_depth.0000000000.001.001.data
 grad-res -------------------------------
 grad-res     0   10    5    3    1   -.849803598E+00 -.849803596E+00 -.849803600E+00
 grad-res     0   10   10   10   20   0.174233817E-04 0.174231712E-04 0.120768546E-04
(PID.TID 0000.0001)       precision_grdchk_result ADM    -8.49803597943908E-01     1.74233816587411E-05
 ph-grd  ierr ---------------------------
 ph-grd  ierr =  0, icomp =  10, ichknum =  10
(PID.TID 0000.0001)  MDSREADFIELD: opening file: adxx_depth.0000000000.001.001.data
(PID.TID 0000.0001)  MDSREADFIELD: opening file: xx_depth.0000000000.001.001.data
(PID.TID 0000.0001)  MDSREADFIELD: opening global file: walls.bigRidge
(PID.TID 0000.0001) // =======================================================
(PID.TID 0000.0001) // Field Bottom depths (ini_depths) at iteration          1
(PID.TID 0000.0001) // CMIN =         -5.000000000000000E+03
(PID.TID 0000.0001) // CMAX =         -2.000000000000000E+03
(PID.TID 0000.0001) // CINT =          1.111111111111111E+02
(PID.TID 0000.0001) // SYMBOLS (CMIN->CMAX): -abcdefghijklmnopqrstuvwxyz+
(PID.TID 0000.0001) //                  0.0: .
(PID.TID 0000.0001) // RANGE I (Lo:Hi:Step):(  -1:   7:   1)
(PID.TID 0000.0001) // RANGE J (Lo:Hi:Step):(   7:  -1:  -1)
(PID.TID 0000.0001) // RANGE K (Lo:Hi:Step):(   1:   1:   1)
(PID.TID 0000.0001) // =======================================================
(PID.TID 0000.0001) K =   1
(PID.TID 0000.0001) //
(PID.TID 0000.0001) // |--J--|*01234567
(PID.TID 0000.0001) //      7 ----+----
(PID.TID 0000.0001) //      6 .........
(PID.TID 0000.0001) //      5 ----+----
(PID.TID 0000.0001) //      4 ----+----
(PID.TID 0000.0001) //      3 ----+----
(PID.TID 0000.0001) //      2 ----+----
(PID.TID 0000.0001) //      1 .........
(PID.TID 0000.0001) //      0 ----+----
(PID.TID 0000.0001) //     -1 ----+----
(PID.TID 0000.0001) // =======================================================
(PID.TID 0000.0001) // END OF FIELD                                          =
(PID.TID 0000.0001) // =======================================================
(PID.TID 0000.0001) 
(PID.TID 0000.0001) // =======================================================
(PID.TID 0000.0001) // Field Model R_low (ini_masks_etc) at iteration          1
(PID.TID 0000.0001) // CMIN =         -5.000000000000000E+03
(PID.TID 0000.0001) // CMAX =         -2.000000000000000E+03
(PID.TID 0000.0001) // CINT =          1.111111111111111E+02
(PID.TID 0000.0001) // SYMBOLS (CMIN->CMAX): -abcdefghijklmnopqrstuvwxyz+
(PID.TID 0000.0001) //                  0.0: .
(PID.TID 0000.0001) // RANGE I (Lo:Hi:Step):(  -1:   7:   1)
(PID.TID 0000.0001) // RANGE J (Lo:Hi:Step):(   7:  -1:  -1)
(PID.TID 0000.0001) // RANGE K (Lo:Hi:Step):(   1:   1:   1)
(PID.TID 0000.0001) // =======================================================
(PID.TID 0000.0001) K =   1
(PID.TID 0000.0001) //
(PID.TID 0000.0001) // |--J--|*01234567
(PID.TID 0000.0001) //      7 ----+----
(PID.TID 0000.0001) //      6 .........
(PID.TID 0000.0001) //      5 ----+----
(PID.TID 0000.0001) //      4 ----+----
(PID.TID 0000.0001) //      3 ----+----
(PID.TID 0000.0001) //      2 ----+----
(PID.TID 0000.0001) //      1 .........
(PID.TID 0000.0001) //      0 ----+----
(PID.TID 0000.0001) //     -1 ----+----
(PID.TID 0000.0001) // =======================================================
(PID.TID 0000.0001) // END OF FIELD                                          =
(PID.TID 0000.0001) // =======================================================
(PID.TID 0000.0001) 
(PID.TID 0000.0001) // =======================================================
(PID.TID 0000.0001) // Field Model Ro_surf (ini_masks_etc) at iteration          1
(PID.TID 0000.0001) // CMIN =          2.273736754432321E-13
(PID.TID 0000.0001) // CMAX =          2.273736754432321E-13
(PID.TID 0000.0001) // CINT =          0.000000000000000E+00
(PID.TID 0000.0001) // SYMBOLS (CMIN->CMAX): -abcdefghijklmnopqrstuvwxyz+
(PID.TID 0000.0001) //                  0.0: .
(PID.TID 0000.0001) // RANGE I (Lo:Hi:Step):(  -1:   7:   1)
(PID.TID 0000.0001) // RANGE J (Lo:Hi:Step):(   7:  -1:  -1)
(PID.TID 0000.0001) // RANGE K (Lo:Hi:Step):(   1:   1:   1)
(PID.TID 0000.0001) // =======================================================
(PID.TID 0000.0001) // =======================================================
(PID.TID 0000.0001) // END OF FIELD                                          =
(PID.TID 0000.0001) // =======================================================
(PID.TID 0000.0001) 
(PID.TID 0000.0001) // =======================================================
(PID.TID 0000.0001) // Field hFacC at iteration          1
(PID.TID 0000.0001) // CMIN =          1.000000000000000E+00
(PID.TID 0000.0001) // CMAX =          1.000000000000000E+00
(PID.TID 0000.0001) // CINT =          0.000000000000000E+00
(PID.TID 0000.0001) // SYMBOLS (CMIN->CMAX): -abcdefghijklmnopqrstuvwxyz+
(PID.TID 0000.0001) //                  0.0: .
(PID.TID 0000.0001) // RANGE I (Lo:Hi:Step):(  -1:   7:   1)
(PID.TID 0000.0001) // RANGE J (Lo:Hi:Step):(   7:  -1:  -1)
(PID.TID 0000.0001) // RANGE K (Lo:Hi:Step):(   1:   1:   1)
(PID.TID 0000.0001) // =======================================================
(PID.TID 0000.0001) // =======================================================
(PID.TID 0000.0001) // END OF FIELD                                          =
(PID.TID 0000.0001) // =======================================================
(PID.TID 0000.0001) 
(PID.TID 0000.0001) // =======================================================
(PID.TID 0000.0001) // Field hFacW at iteration          1
(PID.TID 0000.0001) // CMIN =          1.000000000000000E+00
(PID.TID 0000.0001) // CMAX =          1.000000000000000E+00
(PID.TID 0000.0001) // CINT =          0.000000000000000E+00
(PID.TID 0000.0001) // SYMBOLS (CMIN->CMAX): -abcdefghijklmnopqrstuvwxyz+
(PID.TID 0000.0001) //                  0.0: .
(PID.TID 0000.0001) // RANGE I (Lo:Hi:Step):(  -1:   7:   1)
(PID.TID 0000.0001) // RANGE J (Lo:Hi:Step):(   7:  -1:  -1)
(PID.TID 0000.0001) // RANGE K (Lo:Hi:Step):(   1:   1:   1)
(PID.TID 0000.0001) // =======================================================
(PID.TID 0000.0001) // =======================================================
(PID.TID 0000.0001) // END OF FIELD                                          =
(PID.TID 0000.0001) // =======================================================
(PID.TID 0000.0001) 
(PID.TID 0000.0001) // =======================================================
(PID.TID 0000.0001) // Field hFacS at iteration          1
(PID.TID 0000.0001) // CMIN =          1.000000000000000E+00
(PID.TID 0000.0001) // CMAX =          1.000000000000000E+00
(PID.TID 0000.0001) // CINT =          0.000000000000000E+00
(PID.TID 0000.0001) // SYMBOLS (CMIN->CMAX): -abcdefghijklmnopqrstuvwxyz+
(PID.TID 0000.0001) //                  0.0: .
(PID.TID 0000.0001) // RANGE I (Lo:Hi:Step):(  -1:   7:   1)
(PID.TID 0000.0001) // RANGE J (Lo:Hi:Step):(   7:  -1:  -1)
(PID.TID 0000.0001) // RANGE K (Lo:Hi:Step):(   1:   1:   1)
(PID.TID 0000.0001) // =======================================================
(PID.TID 0000.0001) // =======================================================
(PID.TID 0000.0001) // END OF FIELD                                          =
(PID.TID 0000.0001) // =======================================================
(PID.TID 0000.0001) 
(PID.TID 0000.0001) %MON surfExpanfCori_max           =  -1.0735540000000E-04
(PID.TID 0000.0001) %MON surfExpanfCori_min           =  -1.1783060000000E-04
(PID.TID 0000.0001) %MON surfExpanfCori_mean          =  -1.1259300000000E-04
(PID.TID 0000.0001) %MON surfExpanfCori_sd            =   3.7035424771427E-06
(PID.TID 0000.0001) %MON surfExpanfCoriG_max          =  -1.0866480000000E-04
(PID.TID 0000.0001) %MON surfExpanfCoriG_min          =  -1.1914000000000E-04
(PID.TID 0000.0001) %MON surfExpanfCoriG_mean         =  -1.1390240000000E-04
(PID.TID 0000.0001) %MON surfExpanfCoriG_sd           =   3.7035424771427E-06
(PID.TID 0000.0001) %MON surfExpanfCoriCos_max        =   0.0000000000000E+00
(PID.TID 0000.0001) %MON surfExpanfCoriCos_min        =   0.0000000000000E+00
(PID.TID 0000.0001) %MON surfExpanfCoriCos_mean       =   0.0000000000000E+00
(PID.TID 0000.0001) %MON surfExpanfCoriCos_sd         =   0.0000000000000E+00
(PID.TID 0000.0001) INI_CG2D: CG2D normalisation factor =  1.9999999999999996E-04
(PID.TID 0000.0001) 
                     ctrl_depth_ini: ctrl update R_low,
                                     adding the control vector.
(PID.TID 0000.0001)  MDSREADFIELD: opening file: xx_depth.0000000000.001.001.data
(PID.TID 0000.0001) // =======================================================
(PID.TID 0000.0001) // Field Model Ro_surf (update_masks_etc) at iteration          1
(PID.TID 0000.0001) // CMIN =          2.273736754432321E-13
(PID.TID 0000.0001) // CMAX =          2.273736754432321E-13
(PID.TID 0000.0001) // CINT =          0.000000000000000E+00
(PID.TID 0000.0001) // SYMBOLS (CMIN->CMAX): -abcdefghijklmnopqrstuvwxyz+
(PID.TID 0000.0001) //                  0.0: .
(PID.TID 0000.0001) // RANGE I (Lo:Hi:Step):(  -1:   7:   1)
(PID.TID 0000.0001) // RANGE J (Lo:Hi:Step):(   7:  -1:  -1)
(PID.TID 0000.0001) // RANGE K (Lo:Hi:Step):(   1:   1:   1)
(PID.TID 0000.0001) // =======================================================
(PID.TID 0000.0001) // =======================================================
(PID.TID 0000.0001) // END OF FIELD                                          =
(PID.TID 0000.0001) // =======================================================
(PID.TID 0000.0001) 
(PID.TID 0000.0001) // =======================================================
(PID.TID 0000.0001) // Field hFacC at iteration          1
(PID.TID 0000.0001) // CMIN =          1.000000000000000E+00
(PID.TID 0000.0001) // CMAX =          1.000000000000000E+00
(PID.TID 0000.0001) // CINT =          0.000000000000000E+00
(PID.TID 0000.0001) // SYMBOLS (CMIN->CMAX): -abcdefghijklmnopqrstuvwxyz+
(PID.TID 0000.0001) //                  0.0: .
(PID.TID 0000.0001) // RANGE I (Lo:Hi:Step):(  -1:   7:   1)
(PID.TID 0000.0001) // RANGE J (Lo:Hi:Step):(   7:  -1:  -1)
(PID.TID 0000.0001) // RANGE K (Lo:Hi:Step):(   1:   1:   1)
(PID.TID 0000.0001) // =======================================================
(PID.TID 0000.0001) // =======================================================
(PID.TID 0000.0001) // END OF FIELD                                          =
(PID.TID 0000.0001) // =======================================================
(PID.TID 0000.0001) 
(PID.TID 0000.0001) // =======================================================
(PID.TID 0000.0001) // Field hFacW at iteration          1
(PID.TID 0000.0001) // CMIN =          1.000000000000000E+00
(PID.TID 0000.0001) // CMAX =          1.000000000000000E+00
(PID.TID 0000.0001) // CINT =          0.000000000000000E+00
(PID.TID 0000.0001) // SYMBOLS (CMIN->CMAX): -abcdefghijklmnopqrstuvwxyz+
(PID.TID 0000.0001) //                  0.0: .
(PID.TID 0000.0001) // RANGE I (Lo:Hi:Step):(  -1:   7:   1)
(PID.TID 0000.0001) // RANGE J (Lo:Hi:Step):(   7:  -1:  -1)
(PID.TID 0000.0001) // RANGE K (Lo:Hi:Step):(   1:   1:   1)
(PID.TID 0000.0001) // =======================================================
(PID.TID 0000.0001) // =======================================================
(PID.TID 0000.0001) // END OF FIELD                                          =
(PID.TID 0000.0001) // =======================================================
(PID.TID 0000.0001) 
(PID.TID 0000.0001) // =======================================================
(PID.TID 0000.0001) // Field hFacS at iteration          1
(PID.TID 0000.0001) // CMIN =          1.000000000000000E+00
(PID.TID 0000.0001) // CMAX =          1.000000000000000E+00
(PID.TID 0000.0001) // CINT =          0.000000000000000E+00
(PID.TID 0000.0001) // SYMBOLS (CMIN->CMAX): -abcdefghijklmnopqrstuvwxyz+
(PID.TID 0000.0001) //                  0.0: .
(PID.TID 0000.0001) // RANGE I (Lo:Hi:Step):(  -1:   7:   1)
(PID.TID 0000.0001) // RANGE J (Lo:Hi:Step):(   7:  -1:  -1)
(PID.TID 0000.0001) // RANGE K (Lo:Hi:Step):(   1:   1:   1)
(PID.TID 0000.0001) // =======================================================
(PID.TID 0000.0001) // =======================================================
(PID.TID 0000.0001) // END OF FIELD                                          =
(PID.TID 0000.0001) // =======================================================
(PID.TID 0000.0001) 
(PID.TID 0000.0001) // =======================================================
(PID.TID 0000.0001) // Field Initial Temperature at iteration          1
(PID.TID 0000.0001) // CMIN =          4.000000000000000E+00
(PID.TID 0000.0001) // CMAX =          4.000000000000000E+00
(PID.TID 0000.0001) // CINT =          0.000000000000000E+00
(PID.TID 0000.0001) // SYMBOLS (CMIN->CMAX): -abcdefghijklmnopqrstuvwxyz+
(PID.TID 0000.0001) //                  0.0: .
(PID.TID 0000.0001) // RANGE I (Lo:Hi:Step):(   1:   5:   1)
(PID.TID 0000.0001) // RANGE J (Lo:Hi:Step):(   5:   1:  -1)
(PID.TID 0000.0001) // RANGE K (Lo:Hi:Step):(   1:   1:   1)
(PID.TID 0000.0001) // =======================================================
(PID.TID 0000.0001) // =======================================================
(PID.TID 0000.0001) // END OF FIELD                                          =
(PID.TID 0000.0001) // =======================================================
(PID.TID 0000.0001) 
(PID.TID 0000.0001) // =======================================================
(PID.TID 0000.0001) // Field Initial Salinity at iteration          1
(PID.TID 0000.0001) // CMIN =          3.500000000000000E+01
(PID.TID 0000.0001) // CMAX =          3.500000000000000E+01
(PID.TID 0000.0001) // CINT =          0.000000000000000E+00
(PID.TID 0000.0001) // SYMBOLS (CMIN->CMAX): -abcdefghijklmnopqrstuvwxyz+
(PID.TID 0000.0001) //                  0.0: .
(PID.TID 0000.0001) // RANGE I (Lo:Hi:Step):(   1:   5:   1)
(PID.TID 0000.0001) // RANGE J (Lo:Hi:Step):(   5:   1:  -1)
(PID.TID 0000.0001) // RANGE K (Lo:Hi:Step):(   1:   1:   1)
(PID.TID 0000.0001) // =======================================================
(PID.TID 0000.0001) // =======================================================
(PID.TID 0000.0001) // END OF FIELD                                          =
(PID.TID 0000.0001) // =======================================================
(PID.TID 0000.0001) 
(PID.TID 0000.0001) Start initial hydrostatic pressure computation
(PID.TID 0000.0001) Pressure is predetermined for buoyancyRelation OCEANIC
(PID.TID 0000.0001) 
(PID.TID 0000.0001)  MDSREADFIELD: opening global file: windx.sin_y
(PID.TID 0000.0001) // =======================================================
(PID.TID 0000.0001) // Model current state
(PID.TID 0000.0001) // =======================================================
(PID.TID 0000.0001) 
 cg2d: Sum(rhs),rhsMax =   0.00000000000000E+00  0.00000000000000E+00
 cg2d: Sum(rhs),rhsMax =   4.68375338513738E-16  2.62483626325265E-03
 cg2d: Sum(rhs),rhsMax =   5.41233724504764E-16  5.13362633360820E-03
 cg2d: Sum(rhs),rhsMax =   1.48752538065011E-16  7.16168459196691E-03
 cg2d: Sum(rhs),rhsMax =  -2.81025203108243E-16  9.29466755838986E-03
 cg2d: Sum(rhs),rhsMax =  -9.02056207507940E-17  1.15304356781340E-02
 cg2d: Sum(rhs),rhsMax =  -3.04443970033930E-16  1.37809802340698E-02
 cg2d: Sum(rhs),rhsMax =  -8.67361737988404E-17  1.60011247461528E-02
 cg2d: Sum(rhs),rhsMax =  -1.73472347597681E-16  1.82027337981360E-02
 cg2d: Sum(rhs),rhsMax =  -4.30211422042248E-16  2.04493560962854E-02
 cg2d: Sum(rhs),rhsMax =  -2.35922392732846E-16  2.25706027855439E-02
 cg2d: Sum(rhs),rhsMax =  -3.05311331771918E-16  2.45301657306188E-02
 cg2d: Sum(rhs),rhsMax =   5.55111512312578E-17  2.63097944549826E-02
 cg2d: Sum(rhs),rhsMax =   1.94289029309402E-16  2.79110497425992E-02
 cg2d: Sum(rhs),rhsMax =   1.73472347597681E-16  2.93538602630182E-02
 cg2d: Sum(rhs),rhsMax =   3.67761376907083E-16  3.06720439397988E-02
 cg2d: Sum(rhs),rhsMax =   6.24500451351651E-17  3.19067816946274E-02
 cg2d: Sum(rhs),rhsMax =  -2.28983498828939E-16  3.30992668028302E-02
 cg2d: Sum(rhs),rhsMax =  -9.71445146547012E-17  3.42837433290652E-02
 cg2d: Sum(rhs),rhsMax =  -3.33066907387547E-16  3.54819651298207E-02
 cg2d: Sum(rhs),rhsMax =  -6.38378239159465E-16  3.66998059048459E-02
 cg2d: Sum(rhs),rhsMax =  -3.95516952522712E-16  3.79264046175974E-02
 cg2d: Sum(rhs),rhsMax =  -3.74700270810990E-16  3.91358859149223E-02
 cg2d: Sum(rhs),rhsMax =  -8.60422844084496E-16  4.02913640118959E-02
 cg2d: Sum(rhs),rhsMax =  -1.24900090270330E-15  4.13506295630482E-02
 cg2d: Sum(rhs),rhsMax =  -2.41473507855972E-15  4.22726607754523E-02
 cg2d: Sum(rhs),rhsMax =  -2.48412401759879E-15  4.30239436450103E-02
 cg2d: Sum(rhs),rhsMax =  -2.99760216648792E-15  4.35835863568606E-02
 cg2d: Sum(rhs),rhsMax =  -2.94209101525666E-15  4.39463979979651E-02
 cg2d: Sum(rhs),rhsMax =  -3.58046925441613E-15  4.41234516247559E-02
 cg2d: Sum(rhs),rhsMax =  -3.88578058618805E-15  4.41400963990894E-02
 cg2d: Sum(rhs),rhsMax =  -3.71924713249427E-15  4.40318243197098E-02
 cg2d: Sum(rhs),rhsMax =  -3.60822483003176E-15  4.38387399456819E-02
 cg2d: Sum(rhs),rhsMax =  -2.88657986402541E-15  4.54379563116025E-02
 cg2d: Sum(rhs),rhsMax =  -2.35922392732846E-15  4.77259344516443E-02
 cg2d: Sum(rhs),rhsMax =  -1.98452365651747E-15  4.99949946105317E-02
 cg2d: Sum(rhs),rhsMax =  -1.56819002228303E-15  5.22073349767556E-02
 cg2d: Sum(rhs),rhsMax =  -1.56819002228303E-15  5.43317158746800E-02
 cg2d: Sum(rhs),rhsMax =  -1.40165656858926E-15  5.63476438279050E-02
 cg2d: Sum(rhs),rhsMax =  -1.44328993201270E-15  5.82478251706867E-02
 cg2d: Sum(rhs),rhsMax =  -1.58206781009085E-15  6.00385231871890E-02
 cg2d: Sum(rhs),rhsMax =  -2.02615701994091E-15  6.17377933792262E-02
 cg2d: Sum(rhs),rhsMax =  -1.85962356624714E-15  6.33719187750193E-02
 cg2d: Sum(rhs),rhsMax =  -1.47104550762833E-15  6.49706566752285E-02
 cg2d: Sum(rhs),rhsMax =  -1.77635683940025E-15  6.65620860399685E-02
 cg2d: Sum(rhs),rhsMax =  -1.63757896132211E-15  6.81678817819950E-02
 cg2d: Sum(rhs),rhsMax =  -1.88737914186277E-15  6.97997402164079E-02
 cg2d: Sum(rhs),rhsMax =  -1.66533453693773E-15  7.14574673768890E-02
 cg2d: Sum(rhs),rhsMax =  -2.02615701994091E-15  7.31289634606939E-02
 cg2d: Sum(rhs),rhsMax =  -2.41473507855972E-15  7.47920406603213E-02
 cg2d: Sum(rhs),rhsMax =  -2.60902410786912E-15  7.64177411253519E-02
 cg2d: Sum(rhs),rhsMax =  -2.47024622979097E-15  7.79746105873934E-02
 cg2d: Sum(rhs),rhsMax =  -2.96984659087229E-15  7.94332555866179E-02
 cg2d: Sum(rhs),rhsMax =  -3.19189119579733E-15  8.07704834506106E-02
 cg2d: Sum(rhs),rhsMax =  -3.02535774210355E-15  8.19723990597221E-02
 cg2d: Sum(rhs),rhsMax =  -2.74780198594726E-15  8.30360027418316E-02
 cg2d: Sum(rhs),rhsMax =  -2.59514632006130E-15  8.39690757466228E-02
 cg2d: Sum(rhs),rhsMax =  -2.74780198594726E-15  8.47884156031878E-02
 cg2d: Sum(rhs),rhsMax =  -2.45636844198316E-15  8.55167464699040E-02
 cg2d: Sum(rhs),rhsMax =  -2.40085729075190E-15  8.61788333810468E-02
 cg2d: Sum(rhs),rhsMax =  -1.77635683940025E-15  8.67974394581270E-02
 cg2d: Sum(rhs),rhsMax =  -1.66533453693773E-15  8.73897661257393E-02
 cg2d: Sum(rhs),rhsMax =  -1.49880108324396E-15  8.79649139730115E-02
 cg2d: Sum(rhs),rhsMax =  -1.16573417585641E-15  8.85227199280117E-02
 cg2d: Sum(rhs),rhsMax =  -8.60422844084496E-16  8.90540994606590E-02
 cg2d: Sum(rhs),rhsMax =  -1.33226762955019E-15  8.95427880831617E-02
 cg2d: Sum(rhs),rhsMax =  -1.36002320516582E-15  8.99681686765314E-02
 cg2d: Sum(rhs),rhsMax =  -1.31145094783847E-15  9.03087175287779E-02
 cg2d: Sum(rhs),rhsMax =  -1.54043444666740E-15  9.05455214502902E-02
 cg2d: Sum(rhs),rhsMax =  -9.92261828258734E-16  9.06653206821715E-02
 cg2d: Sum(rhs),rhsMax =  -7.35522753814166E-16  9.06626168874499E-02
 cg2d: Sum(rhs),rhsMax =  -7.77156117237610E-16  9.05405401993836E-02
 cg2d: Sum(rhs),rhsMax =  -7.87564458093470E-16  9.03103706251525E-02
 cg2d: Sum(rhs),rhsMax =  -1.11022302462516E-15  8.99898247376086E-02
 cg2d: Sum(rhs),rhsMax =  -1.23512311489549E-15  8.96004125729596E-02
 cg2d: Sum(rhs),rhsMax =  -1.48112858783245E-15  8.91643093972129E-02
 cg2d: Sum(rhs),rhsMax =  -1.26634813746307E-15  8.87012500711007E-02
 cg2d: Sum(rhs),rhsMax =  -1.33920652345410E-15  8.82259322891840E-02
 cg2d: Sum(rhs),rhsMax =  -1.61676227961038E-15  8.77463165423443E-02
 cg2d: Sum(rhs),rhsMax =  -1.89778748271863E-15  8.72630554215182E-02
 cg2d: Sum(rhs),rhsMax =  -2.02962646689286E-15  8.67701005804799E-02
 cg2d: Sum(rhs),rhsMax =  -2.01921812603700E-15  8.62563520646849E-02
 cg2d: Sum(rhs),rhsMax =  -2.24473217791399E-15  8.57080589451467E-02
 cg2d: Sum(rhs),rhsMax =  -2.32106001085697E-15  8.51115736756248E-02
 cg2d: Sum(rhs),rhsMax =  -2.60555466091716E-15  8.44560190866055E-02
 cg2d: Sum(rhs),rhsMax =  -2.76688394418301E-15  8.37354514301581E-02
 cg2d: Sum(rhs),rhsMax =  -2.36442809775639E-15  8.29501909500217E-02
 cg2d: Sum(rhs),rhsMax =  -2.02355493472695E-15  8.21071292606618E-02
 cg2d: Sum(rhs),rhsMax =  -2.09901540593194E-15  8.12189885480409E-02
 cg2d: Sum(rhs),rhsMax =  -2.55958448880378E-15  8.03026744246965E-02
 cg2d: Sum(rhs),rhsMax =  -2.52228793407028E-15  7.93770048527986E-02
 cg2d: Sum(rhs),rhsMax =  -2.72351585728359E-15  7.84601891434976E-02
 cg2d: Sum(rhs),rhsMax =  -2.65065747129256E-15  7.75674598229370E-02
 cg2d: Sum(rhs),rhsMax =  -2.48065457064683E-15  7.67092236131633E-02
 cg2d: Sum(rhs),rhsMax =  -2.83453815974610E-15  7.58900045801920E-02
 cg2d: Sum(rhs),rhsMax =  -2.85535484145782E-15  7.51083201063314E-02
 cg2d: Sum(rhs),rhsMax =  -3.08086889333481E-15  7.43574812268101E-02
 cg2d: Sum(rhs),rhsMax =  -3.21270787750905E-15  7.36271665059773E-02
 cg2d: Sum(rhs),rhsMax =  -2.52575738102223E-15  7.29055040209149E-02
 cg2d: Sum(rhs),rhsMax =  -2.16493489801906E-15  7.21813251534559E-02
 --> objf_test(bi,bj)   = -0.849803601242177E+00
 --> objf_tracer(bi,bj) =  0.000000000000000E+00
 --> objf_atl(bi,bj)    =  0.000000000000000E+00
  local fc = -0.849803601242177E+00
 global fc = -0.849803601242177E+00
 ph-check fcpertplus =  -0.849803601
(PID.TID 0000.0001)  MDSREADFIELD: opening file: xx_depth.0000000000.001.001.data
 ph-check fcpertminus =  -0.849803598
(PID.TID 0000.0001)  MDSREADFIELD: opening file: xx_depth.0000000000.001.001.data
(PID.TID 0000.0001)  MDSREADFIELD: opening global file: walls.bigRidge
(PID.TID 0000.0001) // =======================================================
(PID.TID 0000.0001) // Field Bottom depths (ini_depths) at iteration          1
(PID.TID 0000.0001) // CMIN =         -5.000000000000000E+03
(PID.TID 0000.0001) // CMAX =         -2.000000000000000E+03
(PID.TID 0000.0001) // CINT =          1.111111111111111E+02
(PID.TID 0000.0001) // SYMBOLS (CMIN->CMAX): -abcdefghijklmnopqrstuvwxyz+
(PID.TID 0000.0001) //                  0.0: .
(PID.TID 0000.0001) // RANGE I (Lo:Hi:Step):(  -1:   7:   1)
(PID.TID 0000.0001) // RANGE J (Lo:Hi:Step):(   7:  -1:  -1)
(PID.TID 0000.0001) // RANGE K (Lo:Hi:Step):(   1:   1:   1)
(PID.TID 0000.0001) // =======================================================
(PID.TID 0000.0001) K =   1
(PID.TID 0000.0001) //
(PID.TID 0000.0001) // |--J--|*01234567
(PID.TID 0000.0001) //      7 ----+----
(PID.TID 0000.0001) //      6 .........
(PID.TID 0000.0001) //      5 ----+----
(PID.TID 0000.0001) //      4 ----+----
(PID.TID 0000.0001) //      3 ----+----
(PID.TID 0000.0001) //      2 ----+----
(PID.TID 0000.0001) //      1 .........
(PID.TID 0000.0001) //      0 ----+----
(PID.TID 0000.0001) //     -1 ----+----
(PID.TID 0000.0001) // =======================================================
(PID.TID 0000.0001) // END OF FIELD                                          =
(PID.TID 0000.0001) // =======================================================
(PID.TID 0000.0001) 
(PID.TID 0000.0001) // =======================================================
(PID.TID 0000.0001) // Field Model R_low (ini_masks_etc) at iteration          1
(PID.TID 0000.0001) // CMIN =         -5.000000000000000E+03
(PID.TID 0000.0001) // CMAX =         -2.000000000000000E+03
(PID.TID 0000.0001) // CINT =          1.111111111111111E+02
(PID.TID 0000.0001) // SYMBOLS (CMIN->CMAX): -abcdefghijklmnopqrstuvwxyz+
(PID.TID 0000.0001) //                  0.0: .
(PID.TID 0000.0001) // RANGE I (Lo:Hi:Step):(  -1:   7:   1)
(PID.TID 0000.0001) // RANGE J (Lo:Hi:Step):(   7:  -1:  -1)
(PID.TID 0000.0001) // RANGE K (Lo:Hi:Step):(   1:   1:   1)
(PID.TID 0000.0001) // =======================================================
(PID.TID 0000.0001) K =   1
(PID.TID 0000.0001) //
(PID.TID 0000.0001) // |--J--|*01234567
(PID.TID 0000.0001) //      7 ----+----
(PID.TID 0000.0001) //      6 .........
(PID.TID 0000.0001) //      5 ----+----
(PID.TID 0000.0001) //      4 ----+----
(PID.TID 0000.0001) //      3 ----+----
(PID.TID 0000.0001) //      2 ----+----
(PID.TID 0000.0001) //      1 .........
(PID.TID 0000.0001) //      0 ----+----
(PID.TID 0000.0001) //     -1 ----+----
(PID.TID 0000.0001) // =======================================================
(PID.TID 0000.0001) // END OF FIELD                                          =
(PID.TID 0000.0001) // =======================================================
(PID.TID 0000.0001) 
(PID.TID 0000.0001) // =======================================================
(PID.TID 0000.0001) // Field Model Ro_surf (ini_masks_etc) at iteration          1
(PID.TID 0000.0001) // CMIN =          2.273736754432321E-13
(PID.TID 0000.0001) // CMAX =          2.273736754432321E-13
(PID.TID 0000.0001) // CINT =          0.000000000000000E+00
(PID.TID 0000.0001) // SYMBOLS (CMIN->CMAX): -abcdefghijklmnopqrstuvwxyz+
(PID.TID 0000.0001) //                  0.0: .
(PID.TID 0000.0001) // RANGE I (Lo:Hi:Step):(  -1:   7:   1)
(PID.TID 0000.0001) // RANGE J (Lo:Hi:Step):(   7:  -1:  -1)
(PID.TID 0000.0001) // RANGE K (Lo:Hi:Step):(   1:   1:   1)
(PID.TID 0000.0001) // =======================================================
(PID.TID 0000.0001) // =======================================================
(PID.TID 0000.0001) // END OF FIELD                                          =
(PID.TID 0000.0001) // =======================================================
(PID.TID 0000.0001) 
(PID.TID 0000.0001) // =======================================================
(PID.TID 0000.0001) // Field hFacC at iteration          1
(PID.TID 0000.0001) // CMIN =          1.000000000000000E+00
(PID.TID 0000.0001) // CMAX =          1.000000000000000E+00
(PID.TID 0000.0001) // CINT =          0.000000000000000E+00
(PID.TID 0000.0001) // SYMBOLS (CMIN->CMAX): -abcdefghijklmnopqrstuvwxyz+
(PID.TID 0000.0001) //                  0.0: .
(PID.TID 0000.0001) // RANGE I (Lo:Hi:Step):(  -1:   7:   1)
(PID.TID 0000.0001) // RANGE J (Lo:Hi:Step):(   7:  -1:  -1)
(PID.TID 0000.0001) // RANGE K (Lo:Hi:Step):(   1:   1:   1)
(PID.TID 0000.0001) // =======================================================
(PID.TID 0000.0001) // =======================================================
(PID.TID 0000.0001) // END OF FIELD                                          =
(PID.TID 0000.0001) // =======================================================
(PID.TID 0000.0001) 
(PID.TID 0000.0001) // =======================================================
(PID.TID 0000.0001) // Field hFacW at iteration          1
(PID.TID 0000.0001) // CMIN =          1.000000000000000E+00
(PID.TID 0000.0001) // CMAX =          1.000000000000000E+00
(PID.TID 0000.0001) // CINT =          0.000000000000000E+00
(PID.TID 0000.0001) // SYMBOLS (CMIN->CMAX): -abcdefghijklmnopqrstuvwxyz+
(PID.TID 0000.0001) //                  0.0: .
(PID.TID 0000.0001) // RANGE I (Lo:Hi:Step):(  -1:   7:   1)
(PID.TID 0000.0001) // RANGE J (Lo:Hi:Step):(   7:  -1:  -1)
(PID.TID 0000.0001) // RANGE K (Lo:Hi:Step):(   1:   1:   1)
(PID.TID 0000.0001) // =======================================================
(PID.TID 0000.0001) // =======================================================
(PID.TID 0000.0001) // END OF FIELD                                          =
(PID.TID 0000.0001) // =======================================================
(PID.TID 0000.0001) 
(PID.TID 0000.0001) // =======================================================
(PID.TID 0000.0001) // Field hFacS at iteration          1
(PID.TID 0000.0001) // CMIN =          1.000000000000000E+00
(PID.TID 0000.0001) // CMAX =          1.000000000000000E+00
(PID.TID 0000.0001) // CINT =          0.000000000000000E+00
(PID.TID 0000.0001) // SYMBOLS (CMIN->CMAX): -abcdefghijklmnopqrstuvwxyz+
(PID.TID 0000.0001) //                  0.0: .
(PID.TID 0000.0001) // RANGE I (Lo:Hi:Step):(  -1:   7:   1)
(PID.TID 0000.0001) // RANGE J (Lo:Hi:Step):(   7:  -1:  -1)
(PID.TID 0000.0001) // RANGE K (Lo:Hi:Step):(   1:   1:   1)
(PID.TID 0000.0001) // =======================================================
(PID.TID 0000.0001) // =======================================================
(PID.TID 0000.0001) // END OF FIELD                                          =
(PID.TID 0000.0001) // =======================================================
(PID.TID 0000.0001) 
(PID.TID 0000.0001) %MON surfExpanfCori_max           =  -1.0735540000000E-04
(PID.TID 0000.0001) %MON surfExpanfCori_min           =  -1.1783060000000E-04
(PID.TID 0000.0001) %MON surfExpanfCori_mean          =  -1.1259300000000E-04
(PID.TID 0000.0001) %MON surfExpanfCori_sd            =   3.7035424771427E-06
(PID.TID 0000.0001) %MON surfExpanfCoriG_max          =  -1.0866480000000E-04
(PID.TID 0000.0001) %MON surfExpanfCoriG_min          =  -1.1914000000000E-04
(PID.TID 0000.0001) %MON surfExpanfCoriG_mean         =  -1.1390240000000E-04
(PID.TID 0000.0001) %MON surfExpanfCoriG_sd           =   3.7035424771427E-06
(PID.TID 0000.0001) %MON surfExpanfCoriCos_max        =   0.0000000000000E+00
(PID.TID 0000.0001) %MON surfExpanfCoriCos_min        =   0.0000000000000E+00
(PID.TID 0000.0001) %MON surfExpanfCoriCos_mean       =   0.0000000000000E+00
(PID.TID 0000.0001) %MON surfExpanfCoriCos_sd         =   0.0000000000000E+00
(PID.TID 0000.0001) INI_CG2D: CG2D normalisation factor =  1.9999999999999996E-04
(PID.TID 0000.0001) 
                     ctrl_depth_ini: ctrl update R_low,
                                     adding the control vector.
(PID.TID 0000.0001)  MDSREADFIELD: opening file: xx_depth.0000000000.001.001.data
(PID.TID 0000.0001) // =======================================================
(PID.TID 0000.0001) // Field Model Ro_surf (update_masks_etc) at iteration          1
(PID.TID 0000.0001) // CMIN =          2.273736754432321E-13
(PID.TID 0000.0001) // CMAX =          2.273736754432321E-13
(PID.TID 0000.0001) // CINT =          0.000000000000000E+00
(PID.TID 0000.0001) // SYMBOLS (CMIN->CMAX): -abcdefghijklmnopqrstuvwxyz+
(PID.TID 0000.0001) //                  0.0: .
(PID.TID 0000.0001) // RANGE I (Lo:Hi:Step):(  -1:   7:   1)
(PID.TID 0000.0001) // RANGE J (Lo:Hi:Step):(   7:  -1:  -1)
(PID.TID 0000.0001) // RANGE K (Lo:Hi:Step):(   1:   1:   1)
(PID.TID 0000.0001) // =======================================================
(PID.TID 0000.0001) // =======================================================
(PID.TID 0000.0001) // END OF FIELD                                          =
(PID.TID 0000.0001) // =======================================================
(PID.TID 0000.0001) 
(PID.TID 0000.0001) // =======================================================
(PID.TID 0000.0001) // Field hFacC at iteration          1
(PID.TID 0000.0001) // CMIN =          1.000000000000000E+00
(PID.TID 0000.0001) // CMAX =          1.000000000000000E+00
(PID.TID 0000.0001) // CINT =          0.000000000000000E+00
(PID.TID 0000.0001) // SYMBOLS (CMIN->CMAX): -abcdefghijklmnopqrstuvwxyz+
(PID.TID 0000.0001) //                  0.0: .
(PID.TID 0000.0001) // RANGE I (Lo:Hi:Step):(  -1:   7:   1)
(PID.TID 0000.0001) // RANGE J (Lo:Hi:Step):(   7:  -1:  -1)
(PID.TID 0000.0001) // RANGE K (Lo:Hi:Step):(   1:   1:   1)
(PID.TID 0000.0001) // =======================================================
(PID.TID 0000.0001) // =======================================================
(PID.TID 0000.0001) // END OF FIELD                                          =
(PID.TID 0000.0001) // =======================================================
(PID.TID 0000.0001) 
(PID.TID 0000.0001) // =======================================================
(PID.TID 0000.0001) // Field hFacW at iteration          1
(PID.TID 0000.0001) // CMIN =          1.000000000000000E+00
(PID.TID 0000.0001) // CMAX =          1.000000000000000E+00
(PID.TID 0000.0001) // CINT =          0.000000000000000E+00
(PID.TID 0000.0001) // SYMBOLS (CMIN->CMAX): -abcdefghijklmnopqrstuvwxyz+
(PID.TID 0000.0001) //                  0.0: .
(PID.TID 0000.0001) // RANGE I (Lo:Hi:Step):(  -1:   7:   1)
(PID.TID 0000.0001) // RANGE J (Lo:Hi:Step):(   7:  -1:  -1)
(PID.TID 0000.0001) // RANGE K (Lo:Hi:Step):(   1:   1:   1)
(PID.TID 0000.0001) // =======================================================
(PID.TID 0000.0001) // =======================================================
(PID.TID 0000.0001) // END OF FIELD                                          =
(PID.TID 0000.0001) // =======================================================
(PID.TID 0000.0001) 
(PID.TID 0000.0001) // =======================================================
(PID.TID 0000.0001) // Field hFacS at iteration          1
(PID.TID 0000.0001) // CMIN =          1.000000000000000E+00
(PID.TID 0000.0001) // CMAX =          1.000000000000000E+00
(PID.TID 0000.0001) // CINT =          0.000000000000000E+00
(PID.TID 0000.0001) // SYMBOLS (CMIN->CMAX): -abcdefghijklmnopqrstuvwxyz+
(PID.TID 0000.0001) //                  0.0: .
(PID.TID 0000.0001) // RANGE I (Lo:Hi:Step):(  -1:   7:   1)
(PID.TID 0000.0001) // RANGE J (Lo:Hi:Step):(   7:  -1:  -1)
(PID.TID 0000.0001) // RANGE K (Lo:Hi:Step):(   1:   1:   1)
(PID.TID 0000.0001) // =======================================================
(PID.TID 0000.0001) // =======================================================
(PID.TID 0000.0001) // END OF FIELD                                          =
(PID.TID 0000.0001) // =======================================================
(PID.TID 0000.0001) 
(PID.TID 0000.0001) // =======================================================
(PID.TID 0000.0001) // Field Initial Temperature at iteration          1
(PID.TID 0000.0001) // CMIN =          4.000000000000000E+00
(PID.TID 0000.0001) // CMAX =          4.000000000000000E+00
(PID.TID 0000.0001) // CINT =          0.000000000000000E+00
(PID.TID 0000.0001) // SYMBOLS (CMIN->CMAX): -abcdefghijklmnopqrstuvwxyz+
(PID.TID 0000.0001) //                  0.0: .
(PID.TID 0000.0001) // RANGE I (Lo:Hi:Step):(   1:   5:   1)
(PID.TID 0000.0001) // RANGE J (Lo:Hi:Step):(   5:   1:  -1)
(PID.TID 0000.0001) // RANGE K (Lo:Hi:Step):(   1:   1:   1)
(PID.TID 0000.0001) // =======================================================
(PID.TID 0000.0001) // =======================================================
(PID.TID 0000.0001) // END OF FIELD                                          =
(PID.TID 0000.0001) // =======================================================
(PID.TID 0000.0001) 
(PID.TID 0000.0001) // =======================================================
(PID.TID 0000.0001) // Field Initial Salinity at iteration          1
(PID.TID 0000.0001) // CMIN =          3.500000000000000E+01
(PID.TID 0000.0001) // CMAX =          3.500000000000000E+01
(PID.TID 0000.0001) // CINT =          0.000000000000000E+00
(PID.TID 0000.0001) // SYMBOLS (CMIN->CMAX): -abcdefghijklmnopqrstuvwxyz+
(PID.TID 0000.0001) //                  0.0: .
(PID.TID 0000.0001) // RANGE I (Lo:Hi:Step):(   1:   5:   1)
(PID.TID 0000.0001) // RANGE J (Lo:Hi:Step):(   5:   1:  -1)
(PID.TID 0000.0001) // RANGE K (Lo:Hi:Step):(   1:   1:   1)
(PID.TID 0000.0001) // =======================================================
(PID.TID 0000.0001) // =======================================================
(PID.TID 0000.0001) // END OF FIELD                                          =
(PID.TID 0000.0001) // =======================================================
(PID.TID 0000.0001) 
(PID.TID 0000.0001) Start initial hydrostatic pressure computation
(PID.TID 0000.0001) Pressure is predetermined for buoyancyRelation OCEANIC
(PID.TID 0000.0001) 
(PID.TID 0000.0001)  MDSREADFIELD: opening global file: windx.sin_y
(PID.TID 0000.0001) // =======================================================
(PID.TID 0000.0001) // Model current state
(PID.TID 0000.0001) // =======================================================
(PID.TID 0000.0001) 
 cg2d: Sum(rhs),rhsMax =   0.00000000000000E+00  0.00000000000000E+00
 cg2d: Sum(rhs),rhsMax =   4.68375338513738E-16  2.62483626325265E-03
 cg2d: Sum(rhs),rhsMax =   7.40726924242097E-16  5.13362633360820E-03
 cg2d: Sum(rhs),rhsMax =   3.27862736959617E-16  7.16168459364923E-03
 cg2d: Sum(rhs),rhsMax =  -3.91180143832770E-16  9.29466756133041E-03
 cg2d: Sum(rhs),rhsMax =  -9.95731275210687E-16  1.15304356813682E-02
 cg2d: Sum(rhs),rhsMax =  -9.34148591813511E-16  1.37809802367042E-02
 cg2d: Sum(rhs),rhsMax =  -1.36349265211777E-15  1.60011247477049E-02
 cg2d: Sum(rhs),rhsMax =  -2.12330153459561E-15  1.82027337843091E-02
 cg2d: Sum(rhs),rhsMax =  -1.60982338570648E-15  2.04493560780248E-02
 cg2d: Sum(rhs),rhsMax =  -1.08246744900953E-15  2.25706027622757E-02
 cg2d: Sum(rhs),rhsMax =  -1.29063426612674E-15  2.45301657017852E-02
 cg2d: Sum(rhs),rhsMax =  -1.30451205393456E-15  2.63097944200027E-02
 cg2d: Sum(rhs),rhsMax =  -1.45716771982052E-15  2.79110497008293E-02
 cg2d: Sum(rhs),rhsMax =  -1.74860126378462E-15  2.93538602137145E-02
 cg2d: Sum(rhs),rhsMax =  -1.81799020282369E-15  3.06720438820857E-02
 cg2d: Sum(rhs),rhsMax =  -1.57512891618694E-15  3.19067816274797E-02
 cg2d: Sum(rhs),rhsMax =  -2.19962936753859E-15  3.30992667250695E-02
 cg2d: Sum(rhs),rhsMax =  -2.81719092498633E-15  3.42837432393749E-02
 cg2d: Sum(rhs),rhsMax =  -2.70616862252382E-15  3.54819650267745E-02
 cg2d: Sum(rhs),rhsMax =  -2.41473507855972E-15  3.66998057869486E-02
 cg2d: Sum(rhs),rhsMax =  -1.79717352111197E-15  3.79264044833305E-02
 cg2d: Sum(rhs),rhsMax =  -2.03309591384482E-15  3.91358857627900E-02
 cg2d: Sum(rhs),rhsMax =  -2.26207941267376E-15  4.02913638404643E-02
 cg2d: Sum(rhs),rhsMax =  -2.27595720048157E-15  4.13506293709737E-02
 cg2d: Sum(rhs),rhsMax =  -2.06779038336435E-15  4.22726605614961E-02
 cg2d: Sum(rhs),rhsMax =  -1.33226762955019E-15  4.30239434080384E-02
 cg2d: Sum(rhs),rhsMax =  -1.41553435639707E-15  4.35835860958318E-02
 cg2d: Sum(rhs),rhsMax =  -1.17961196366423E-15  4.39463977119093E-02
 cg2d: Sum(rhs),rhsMax =  -9.57567358739198E-16  4.41234513127485E-02
 cg2d: Sum(rhs),rhsMax =  -1.27675647831893E-15  4.41400960602273E-02
 cg2d: Sum(rhs),rhsMax =  -2.09554595897998E-15  4.40318239530942E-02
 cg2d: Sum(rhs),rhsMax =  -2.06779038336435E-15  4.38387395504101E-02
 cg2d: Sum(rhs),rhsMax =  -2.33146835171283E-15  4.54379565753065E-02
 cg2d: Sum(rhs),rhsMax =  -2.30371277609720E-15  4.77259347146510E-02
 cg2d: Sum(rhs),rhsMax =  -2.01227923213310E-15  4.99949948709067E-02
 cg2d: Sum(rhs),rhsMax =  -1.94289029309402E-15  5.22073352330178E-02
 cg2d: Sum(rhs),rhsMax =  -1.79023462720806E-15  5.43317161257942E-02
 cg2d: Sum(rhs),rhsMax =  -1.91513471747840E-15  5.63476440731918E-02
 cg2d: Sum(rhs),rhsMax =  -1.52655665885959E-15  5.82478254096686E-02
 cg2d: Sum(rhs),rhsMax =  -1.91513471747840E-15  6.00385234193965E-02
 cg2d: Sum(rhs),rhsMax =  -1.77635683940025E-15  6.17377936039985E-02
 cg2d: Sum(rhs),rhsMax =  -1.60982338570648E-15  6.33719189913306E-02
 cg2d: Sum(rhs),rhsMax =  -2.05391259555654E-15  6.49706568815664E-02
 cg2d: Sum(rhs),rhsMax =  -2.08166817117217E-15  6.65620862342850E-02
 cg2d: Sum(rhs),rhsMax =  -1.55431223447522E-15  6.81678819617348E-02
 cg2d: Sum(rhs),rhsMax =  -1.74860126378462E-15  6.97997403786100E-02
 cg2d: Sum(rhs),rhsMax =  -1.60982338570648E-15  7.14574675183448E-02
 cg2d: Sum(rhs),rhsMax =  -1.19348975147204E-15  7.31289635781355E-02
 cg2d: Sum(rhs),rhsMax =  -1.60982338570648E-15  7.47920407506124E-02
 cg2d: Sum(rhs),rhsMax =  -1.60982338570648E-15  7.64177411856528E-02
 cg2d: Sum(rhs),rhsMax =  -1.30451205393456E-15  7.79746106152750E-02
 cg2d: Sum(rhs),rhsMax =  -1.16573417585641E-15  7.94332555801113E-02
 cg2d: Sum(rhs),rhsMax =  -1.30451205393456E-15  8.07704834081873E-02
 cg2d: Sum(rhs),rhsMax =  -1.85962356624714E-15  8.19723989802108E-02
 cg2d: Sum(rhs),rhsMax =  -1.60982338570648E-15  8.30360026242886E-02
 cg2d: Sum(rhs),rhsMax =  -9.99200722162641E-16  8.39690755901780E-02
 cg2d: Sum(rhs),rhsMax =  -1.19348975147204E-15  8.47884154068925E-02
 cg2d: Sum(rhs),rhsMax =  -1.52655665885959E-15  8.55167462326070E-02
 cg2d: Sum(rhs),rhsMax =  -1.76247905159244E-15  8.61788331013162E-02
 cg2d: Sum(rhs),rhsMax =  -1.90125692967058E-15  8.67974391342321E-02
 cg2d: Sum(rhs),rhsMax =  -2.01227923213310E-15  8.73897657556940E-02
 cg2d: Sum(rhs),rhsMax =  -2.05391259555654E-15  8.79649135546725E-02
 cg2d: Sum(rhs),rhsMax =  -2.69229083471600E-15  8.85227194592157E-02
 cg2d: Sum(rhs),rhsMax =  -2.88657986402541E-15  8.90540989393777E-02
 cg2d: Sum(rhs),rhsMax =  -3.13638004456607E-15  8.95427875076508E-02
 cg2d: Sum(rhs),rhsMax =  -3.19189119579733E-15  8.99681680454527E-02
 cg2d: Sum(rhs),rhsMax =  -3.35842464949110E-15  9.03087168412752E-02
 cg2d: Sum(rhs),rhsMax =  -3.01841884819964E-15  9.05455207060119E-02
 cg2d: Sum(rhs),rhsMax =  -3.24046345312468E-15  9.06653198812362E-02
 cg2d: Sum(rhs),rhsMax =  -3.36536354339501E-15  9.06626160303651E-02
 cg2d: Sum(rhs),rhsMax =  -3.19883008970123E-15  9.05405392869297E-02
 cg2d: Sum(rhs),rhsMax =  -3.64638874650325E-15  9.03103696582530E-02
 cg2d: Sum(rhs),rhsMax =  -3.98292510084275E-15  8.99898237172074E-02
 cg2d: Sum(rhs),rhsMax =  -4.13384604325273E-15  8.96004114999231E-02
 cg2d: Sum(rhs),rhsMax =  -4.33290556212107E-15  8.91643082722731E-02
 cg2d: Sum(rhs),rhsMax =  -4.23099055790743E-15  8.87012488948469E-02
 cg2d: Sum(rhs),rhsMax =  -4.43742265154867E-15  8.82259310620994E-02
 cg2d: Sum(rhs),rhsMax =  -4.56232274181900E-15  8.77463152648872E-02
 cg2d: Sum(rhs),rhsMax =  -4.77048955893622E-15  8.72630540942254E-02
 cg2d: Sum(rhs),rhsMax =  -4.71844785465692E-15  8.67700992040815E-02
 cg2d: Sum(rhs),rhsMax =  -4.49640324973188E-15  8.62563506402081E-02
 cg2d: Sum(rhs),rhsMax =  -4.77048955893622E-15  8.57080574739931E-02
 cg2d: Sum(rhs),rhsMax =  -4.87977713792276E-15  8.51115721596110E-02
 cg2d: Sum(rhs),rhsMax =  -5.25274268525777E-15  8.44560175279573E-02
 cg2d: Sum(rhs),rhsMax =  -5.34121358253259E-15  8.37354498314637E-02
 cg2d: Sum(rhs),rhsMax =  -5.26488574958961E-15  8.29501893141487E-02
 cg2d: Sum(rhs),rhsMax =  -5.50210918492944E-15  8.21071275906532E-02
 cg2d: Sum(rhs),rhsMax =  -5.29784549563317E-15  8.12189868470033E-02
 cg2d: Sum(rhs),rhsMax =  -5.20243570445444E-15  8.03026726957004E-02
 cg2d: Sum(rhs),rhsMax =  -5.68295410730002E-15  7.93770030988025E-02
 cg2d: Sum(rhs),rhsMax =  -5.90152926527310E-15  7.84601873673061E-02
 cg2d: Sum(rhs),rhsMax =  -5.57366652831348E-15  7.75674580271987E-02
 cg2d: Sum(rhs),rhsMax =  -5.12090370108353E-15  7.67092218004049E-02
 cg2d: Sum(rhs),rhsMax =  -5.53376788836601E-15  7.58900027528814E-02
 cg2d: Sum(rhs),rhsMax =  -6.02295990859147E-15  7.51083182669588E-02
 cg2d: Sum(rhs),rhsMax =  -6.20337115009306E-15  7.43574793779701E-02
 cg2d: Sum(rhs),rhsMax =  -6.43929354282591E-15  7.36271646504404E-02
 cg2d: Sum(rhs),rhsMax =  -6.21031004399697E-15  7.29055021616744E-02
 cg2d: Sum(rhs),rhsMax =  -6.16867668057353E-15  7.21813232937422E-02
 --> objf_test(bi,bj)   = -0.849803594645638E+00
 --> objf_tracer(bi,bj) =  0.000000000000000E+00
 --> objf_atl(bi,bj)    =  0.000000000000000E+00
  local fc = -0.849803594645638E+00
 global fc = -0.849803594645638E+00
(PID.TID 0000.0001)  MDSREADFIELD: opening file: xx_depth.0000000000.001.001.data
 grad-res -------------------------------
 grad-res     0   11    1    4    1   -.849803598E+00 -.849803601E+00 -.849803595E+00
 grad-res     0   11   11   11   20   -.329829618E-04 -.329826921E-04 0.817573922E-05
(PID.TID 0000.0001)       precision_grdchk_result ADM    -8.49803597943908E-01    -3.29829617931266E-05
 ph-grd  ierr ---------------------------
 ph-grd  ierr =  0, icomp =  11, ichknum =  11
(PID.TID 0000.0001)  MDSREADFIELD: opening file: adxx_depth.0000000000.001.001.data
(PID.TID 0000.0001)  MDSREADFIELD: opening file: xx_depth.0000000000.001.001.data
(PID.TID 0000.0001)  MDSREADFIELD: opening global file: walls.bigRidge
(PID.TID 0000.0001) // =======================================================
(PID.TID 0000.0001) // Field Bottom depths (ini_depths) at iteration          1
(PID.TID 0000.0001) // CMIN =         -5.000000000000000E+03
(PID.TID 0000.0001) // CMAX =         -2.000000000000000E+03
(PID.TID 0000.0001) // CINT =          1.111111111111111E+02
(PID.TID 0000.0001) // SYMBOLS (CMIN->CMAX): -abcdefghijklmnopqrstuvwxyz+
(PID.TID 0000.0001) //                  0.0: .
(PID.TID 0000.0001) // RANGE I (Lo:Hi:Step):(  -1:   7:   1)
(PID.TID 0000.0001) // RANGE J (Lo:Hi:Step):(   7:  -1:  -1)
(PID.TID 0000.0001) // RANGE K (Lo:Hi:Step):(   1:   1:   1)
(PID.TID 0000.0001) // =======================================================
(PID.TID 0000.0001) K =   1
(PID.TID 0000.0001) //
(PID.TID 0000.0001) // |--J--|*01234567
(PID.TID 0000.0001) //      7 ----+----
(PID.TID 0000.0001) //      6 .........
(PID.TID 0000.0001) //      5 ----+----
(PID.TID 0000.0001) //      4 ----+----
(PID.TID 0000.0001) //      3 ----+----
(PID.TID 0000.0001) //      2 ----+----
(PID.TID 0000.0001) //      1 .........
(PID.TID 0000.0001) //      0 ----+----
(PID.TID 0000.0001) //     -1 ----+----
(PID.TID 0000.0001) // =======================================================
(PID.TID 0000.0001) // END OF FIELD                                          =
(PID.TID 0000.0001) // =======================================================
(PID.TID 0000.0001) 
(PID.TID 0000.0001) // =======================================================
(PID.TID 0000.0001) // Field Model R_low (ini_masks_etc) at iteration          1
(PID.TID 0000.0001) // CMIN =         -5.000000000000000E+03
(PID.TID 0000.0001) // CMAX =         -2.000000000000000E+03
(PID.TID 0000.0001) // CINT =          1.111111111111111E+02
(PID.TID 0000.0001) // SYMBOLS (CMIN->CMAX): -abcdefghijklmnopqrstuvwxyz+
(PID.TID 0000.0001) //                  0.0: .
(PID.TID 0000.0001) // RANGE I (Lo:Hi:Step):(  -1:   7:   1)
(PID.TID 0000.0001) // RANGE J (Lo:Hi:Step):(   7:  -1:  -1)
(PID.TID 0000.0001) // RANGE K (Lo:Hi:Step):(   1:   1:   1)
(PID.TID 0000.0001) // =======================================================
(PID.TID 0000.0001) K =   1
(PID.TID 0000.0001) //
(PID.TID 0000.0001) // |--J--|*01234567
(PID.TID 0000.0001) //      7 ----+----
(PID.TID 0000.0001) //      6 .........
(PID.TID 0000.0001) //      5 ----+----
(PID.TID 0000.0001) //      4 ----+----
(PID.TID 0000.0001) //      3 ----+----
(PID.TID 0000.0001) //      2 ----+----
(PID.TID 0000.0001) //      1 .........
(PID.TID 0000.0001) //      0 ----+----
(PID.TID 0000.0001) //     -1 ----+----
(PID.TID 0000.0001) // =======================================================
(PID.TID 0000.0001) // END OF FIELD                                          =
(PID.TID 0000.0001) // =======================================================
(PID.TID 0000.0001) 
(PID.TID 0000.0001) // =======================================================
(PID.TID 0000.0001) // Field Model Ro_surf (ini_masks_etc) at iteration          1
(PID.TID 0000.0001) // CMIN =          2.273736754432321E-13
(PID.TID 0000.0001) // CMAX =          2.273736754432321E-13
(PID.TID 0000.0001) // CINT =          0.000000000000000E+00
(PID.TID 0000.0001) // SYMBOLS (CMIN->CMAX): -abcdefghijklmnopqrstuvwxyz+
(PID.TID 0000.0001) //                  0.0: .
(PID.TID 0000.0001) // RANGE I (Lo:Hi:Step):(  -1:   7:   1)
(PID.TID 0000.0001) // RANGE J (Lo:Hi:Step):(   7:  -1:  -1)
(PID.TID 0000.0001) // RANGE K (Lo:Hi:Step):(   1:   1:   1)
(PID.TID 0000.0001) // =======================================================
(PID.TID 0000.0001) // =======================================================
(PID.TID 0000.0001) // END OF FIELD                                          =
(PID.TID 0000.0001) // =======================================================
(PID.TID 0000.0001) 
(PID.TID 0000.0001) // =======================================================
(PID.TID 0000.0001) // Field hFacC at iteration          1
(PID.TID 0000.0001) // CMIN =          1.000000000000000E+00
(PID.TID 0000.0001) // CMAX =          1.000000000000000E+00
(PID.TID 0000.0001) // CINT =          0.000000000000000E+00
(PID.TID 0000.0001) // SYMBOLS (CMIN->CMAX): -abcdefghijklmnopqrstuvwxyz+
(PID.TID 0000.0001) //                  0.0: .
(PID.TID 0000.0001) // RANGE I (Lo:Hi:Step):(  -1:   7:   1)
(PID.TID 0000.0001) // RANGE J (Lo:Hi:Step):(   7:  -1:  -1)
(PID.TID 0000.0001) // RANGE K (Lo:Hi:Step):(   1:   1:   1)
(PID.TID 0000.0001) // =======================================================
(PID.TID 0000.0001) // =======================================================
(PID.TID 0000.0001) // END OF FIELD                                          =
(PID.TID 0000.0001) // =======================================================
(PID.TID 0000.0001) 
(PID.TID 0000.0001) // =======================================================
(PID.TID 0000.0001) // Field hFacW at iteration          1
(PID.TID 0000.0001) // CMIN =          1.000000000000000E+00
(PID.TID 0000.0001) // CMAX =          1.000000000000000E+00
(PID.TID 0000.0001) // CINT =          0.000000000000000E+00
(PID.TID 0000.0001) // SYMBOLS (CMIN->CMAX): -abcdefghijklmnopqrstuvwxyz+
(PID.TID 0000.0001) //                  0.0: .
(PID.TID 0000.0001) // RANGE I (Lo:Hi:Step):(  -1:   7:   1)
(PID.TID 0000.0001) // RANGE J (Lo:Hi:Step):(   7:  -1:  -1)
(PID.TID 0000.0001) // RANGE K (Lo:Hi:Step):(   1:   1:   1)
(PID.TID 0000.0001) // =======================================================
(PID.TID 0000.0001) // =======================================================
(PID.TID 0000.0001) // END OF FIELD                                          =
(PID.TID 0000.0001) // =======================================================
(PID.TID 0000.0001) 
(PID.TID 0000.0001) // =======================================================
(PID.TID 0000.0001) // Field hFacS at iteration          1
(PID.TID 0000.0001) // CMIN =          1.000000000000000E+00
(PID.TID 0000.0001) // CMAX =          1.000000000000000E+00
(PID.TID 0000.0001) // CINT =          0.000000000000000E+00
(PID.TID 0000.0001) // SYMBOLS (CMIN->CMAX): -abcdefghijklmnopqrstuvwxyz+
(PID.TID 0000.0001) //                  0.0: .
(PID.TID 0000.0001) // RANGE I (Lo:Hi:Step):(  -1:   7:   1)
(PID.TID 0000.0001) // RANGE J (Lo:Hi:Step):(   7:  -1:  -1)
(PID.TID 0000.0001) // RANGE K (Lo:Hi:Step):(   1:   1:   1)
(PID.TID 0000.0001) // =======================================================
(PID.TID 0000.0001) // =======================================================
(PID.TID 0000.0001) // END OF FIELD                                          =
(PID.TID 0000.0001) // =======================================================
(PID.TID 0000.0001) 
(PID.TID 0000.0001) %MON surfExpanfCori_max           =  -1.0735540000000E-04
(PID.TID 0000.0001) %MON surfExpanfCori_min           =  -1.1783060000000E-04
(PID.TID 0000.0001) %MON surfExpanfCori_mean          =  -1.1259300000000E-04
(PID.TID 0000.0001) %MON surfExpanfCori_sd            =   3.7035424771427E-06
(PID.TID 0000.0001) %MON surfExpanfCoriG_max          =  -1.0866480000000E-04
(PID.TID 0000.0001) %MON surfExpanfCoriG_min          =  -1.1914000000000E-04
(PID.TID 0000.0001) %MON surfExpanfCoriG_mean         =  -1.1390240000000E-04
(PID.TID 0000.0001) %MON surfExpanfCoriG_sd           =   3.7035424771427E-06
(PID.TID 0000.0001) %MON surfExpanfCoriCos_max        =   0.0000000000000E+00
(PID.TID 0000.0001) %MON surfExpanfCoriCos_min        =   0.0000000000000E+00
(PID.TID 0000.0001) %MON surfExpanfCoriCos_mean       =   0.0000000000000E+00
(PID.TID 0000.0001) %MON surfExpanfCoriCos_sd         =   0.0000000000000E+00
(PID.TID 0000.0001) INI_CG2D: CG2D normalisation factor =  1.9999999999999996E-04
(PID.TID 0000.0001) 
                     ctrl_depth_ini: ctrl update R_low,
                                     adding the control vector.
(PID.TID 0000.0001)  MDSREADFIELD: opening file: xx_depth.0000000000.001.001.data
(PID.TID 0000.0001) // =======================================================
(PID.TID 0000.0001) // Field Model Ro_surf (update_masks_etc) at iteration          1
(PID.TID 0000.0001) // CMIN =          2.273736754432321E-13
(PID.TID 0000.0001) // CMAX =          2.273736754432321E-13
(PID.TID 0000.0001) // CINT =          0.000000000000000E+00
(PID.TID 0000.0001) // SYMBOLS (CMIN->CMAX): -abcdefghijklmnopqrstuvwxyz+
(PID.TID 0000.0001) //                  0.0: .
(PID.TID 0000.0001) // RANGE I (Lo:Hi:Step):(  -1:   7:   1)
(PID.TID 0000.0001) // RANGE J (Lo:Hi:Step):(   7:  -1:  -1)
(PID.TID 0000.0001) // RANGE K (Lo:Hi:Step):(   1:   1:   1)
(PID.TID 0000.0001) // =======================================================
(PID.TID 0000.0001) // =======================================================
(PID.TID 0000.0001) // END OF FIELD                                          =
(PID.TID 0000.0001) // =======================================================
(PID.TID 0000.0001) 
(PID.TID 0000.0001) // =======================================================
(PID.TID 0000.0001) // Field hFacC at iteration          1
(PID.TID 0000.0001) // CMIN =          1.000000000000000E+00
(PID.TID 0000.0001) // CMAX =          1.000000000000000E+00
(PID.TID 0000.0001) // CINT =          0.000000000000000E+00
(PID.TID 0000.0001) // SYMBOLS (CMIN->CMAX): -abcdefghijklmnopqrstuvwxyz+
(PID.TID 0000.0001) //                  0.0: .
(PID.TID 0000.0001) // RANGE I (Lo:Hi:Step):(  -1:   7:   1)
(PID.TID 0000.0001) // RANGE J (Lo:Hi:Step):(   7:  -1:  -1)
(PID.TID 0000.0001) // RANGE K (Lo:Hi:Step):(   1:   1:   1)
(PID.TID 0000.0001) // =======================================================
(PID.TID 0000.0001) // =======================================================
(PID.TID 0000.0001) // END OF FIELD                                          =
(PID.TID 0000.0001) // =======================================================
(PID.TID 0000.0001) 
(PID.TID 0000.0001) // =======================================================
(PID.TID 0000.0001) // Field hFacW at iteration          1
(PID.TID 0000.0001) // CMIN =          1.000000000000000E+00
(PID.TID 0000.0001) // CMAX =          1.000000000000000E+00
(PID.TID 0000.0001) // CINT =          0.000000000000000E+00
(PID.TID 0000.0001) // SYMBOLS (CMIN->CMAX): -abcdefghijklmnopqrstuvwxyz+
(PID.TID 0000.0001) //                  0.0: .
(PID.TID 0000.0001) // RANGE I (Lo:Hi:Step):(  -1:   7:   1)
(PID.TID 0000.0001) // RANGE J (Lo:Hi:Step):(   7:  -1:  -1)
(PID.TID 0000.0001) // RANGE K (Lo:Hi:Step):(   1:   1:   1)
(PID.TID 0000.0001) // =======================================================
(PID.TID 0000.0001) // =======================================================
(PID.TID 0000.0001) // END OF FIELD                                          =
(PID.TID 0000.0001) // =======================================================
(PID.TID 0000.0001) 
(PID.TID 0000.0001) // =======================================================
(PID.TID 0000.0001) // Field hFacS at iteration          1
(PID.TID 0000.0001) // CMIN =          1.000000000000000E+00
(PID.TID 0000.0001) // CMAX =          1.000000000000000E+00
(PID.TID 0000.0001) // CINT =          0.000000000000000E+00
(PID.TID 0000.0001) // SYMBOLS (CMIN->CMAX): -abcdefghijklmnopqrstuvwxyz+
(PID.TID 0000.0001) //                  0.0: .
(PID.TID 0000.0001) // RANGE I (Lo:Hi:Step):(  -1:   7:   1)
(PID.TID 0000.0001) // RANGE J (Lo:Hi:Step):(   7:  -1:  -1)
(PID.TID 0000.0001) // RANGE K (Lo:Hi:Step):(   1:   1:   1)
(PID.TID 0000.0001) // =======================================================
(PID.TID 0000.0001) // =======================================================
(PID.TID 0000.0001) // END OF FIELD                                          =
(PID.TID 0000.0001) // =======================================================
(PID.TID 0000.0001) 
(PID.TID 0000.0001) // =======================================================
(PID.TID 0000.0001) // Field Initial Temperature at iteration          1
(PID.TID 0000.0001) // CMIN =          4.000000000000000E+00
(PID.TID 0000.0001) // CMAX =          4.000000000000000E+00
(PID.TID 0000.0001) // CINT =          0.000000000000000E+00
(PID.TID 0000.0001) // SYMBOLS (CMIN->CMAX): -abcdefghijklmnopqrstuvwxyz+
(PID.TID 0000.0001) //                  0.0: .
(PID.TID 0000.0001) // RANGE I (Lo:Hi:Step):(   1:   5:   1)
(PID.TID 0000.0001) // RANGE J (Lo:Hi:Step):(   5:   1:  -1)
(PID.TID 0000.0001) // RANGE K (Lo:Hi:Step):(   1:   1:   1)
(PID.TID 0000.0001) // =======================================================
(PID.TID 0000.0001) // =======================================================
(PID.TID 0000.0001) // END OF FIELD                                          =
(PID.TID 0000.0001) // =======================================================
(PID.TID 0000.0001) 
(PID.TID 0000.0001) // =======================================================
(PID.TID 0000.0001) // Field Initial Salinity at iteration          1
(PID.TID 0000.0001) // CMIN =          3.500000000000000E+01
(PID.TID 0000.0001) // CMAX =          3.500000000000000E+01
(PID.TID 0000.0001) // CINT =          0.000000000000000E+00
(PID.TID 0000.0001) // SYMBOLS (CMIN->CMAX): -abcdefghijklmnopqrstuvwxyz+
(PID.TID 0000.0001) //                  0.0: .
(PID.TID 0000.0001) // RANGE I (Lo:Hi:Step):(   1:   5:   1)
(PID.TID 0000.0001) // RANGE J (Lo:Hi:Step):(   5:   1:  -1)
(PID.TID 0000.0001) // RANGE K (Lo:Hi:Step):(   1:   1:   1)
(PID.TID 0000.0001) // =======================================================
(PID.TID 0000.0001) // =======================================================
(PID.TID 0000.0001) // END OF FIELD                                          =
(PID.TID 0000.0001) // =======================================================
(PID.TID 0000.0001) 
(PID.TID 0000.0001) Start initial hydrostatic pressure computation
(PID.TID 0000.0001) Pressure is predetermined for buoyancyRelation OCEANIC
(PID.TID 0000.0001) 
(PID.TID 0000.0001)  MDSREADFIELD: opening global file: windx.sin_y
(PID.TID 0000.0001) // =======================================================
(PID.TID 0000.0001) // Model current state
(PID.TID 0000.0001) // =======================================================
(PID.TID 0000.0001) 
 cg2d: Sum(rhs),rhsMax =   0.00000000000000E+00  0.00000000000000E+00
 cg2d: Sum(rhs),rhsMax =   4.68375338513738E-16  2.62483626325265E-03
 cg2d: Sum(rhs),rhsMax =   7.61543605953818E-16  5.13362633360907E-03
 cg2d: Sum(rhs),rhsMax =   2.57172755313562E-16  7.16168459353271E-03
 cg2d: Sum(rhs),rhsMax =   2.90566182226115E-16  9.29466756235762E-03
 cg2d: Sum(rhs),rhsMax =   1.42247325030098E-16  1.15304356851430E-02
 cg2d: Sum(rhs),rhsMax =   1.06685493772574E-16  1.37809802443321E-02
 cg2d: Sum(rhs),rhsMax =   8.32667268468867E-16  1.60011247594624E-02
 cg2d: Sum(rhs),rhsMax =   1.20736753927986E-15  1.82027337817922E-02
 cg2d: Sum(rhs),rhsMax =   1.44328993201270E-15  2.04493560734332E-02
 cg2d: Sum(rhs),rhsMax =   1.11022302462516E-15  2.25706027547852E-02
 cg2d: Sum(rhs),rhsMax =   1.08246744900953E-15  2.45301656905137E-02
 cg2d: Sum(rhs),rhsMax =   1.24900090270330E-15  2.63097944040990E-02
 cg2d: Sum(rhs),rhsMax =   1.05471187339390E-15  2.79110496795588E-02
 cg2d: Sum(rhs),rhsMax =   1.34614541735800E-15  2.93538601865324E-02
 cg2d: Sum(rhs),rhsMax =   1.59594559789866E-15  3.06720438486919E-02
 cg2d: Sum(rhs),rhsMax =   1.22124532708767E-15  3.19067815878459E-02
 cg2d: Sum(rhs),rhsMax =   7.21644966006352E-16  3.30992666794361E-02
 cg2d: Sum(rhs),rhsMax =   2.49800180540660E-16  3.42837431882193E-02
 cg2d: Sum(rhs),rhsMax =   7.14706072102445E-16  3.54819649707570E-02
 cg2d: Sum(rhs),rhsMax =   7.28583859910259E-16  3.66998057268439E-02
 cg2d: Sum(rhs),rhsMax =   1.23512311489549E-15  3.79264044199571E-02
 cg2d: Sum(rhs),rhsMax =   1.15879528195251E-15  3.91358856969467E-02
 cg2d: Sum(rhs),rhsMax =   6.24500451351651E-16  4.02913637728844E-02
 cg2d: Sum(rhs),rhsMax =   1.66533453693773E-16  4.13506293023015E-02
 cg2d: Sum(rhs),rhsMax =   8.60422844084496E-16  4.22726604922890E-02
 cg2d: Sum(rhs),rhsMax =   3.88578058618805E-16  4.30239433387919E-02
 cg2d: Sum(rhs),rhsMax =   4.30211422042248E-16  4.35835860270217E-02
 cg2d: Sum(rhs),rhsMax =   3.74700270810990E-16  4.39463976440439E-02
 cg2d: Sum(rhs),rhsMax =   3.33066907387547E-16  4.41234512464213E-02
 cg2d: Sum(rhs),rhsMax =   5.82867087928207E-16  4.41400959961594E-02
 cg2d: Sum(rhs),rhsMax =   4.44089209850063E-16  4.40318238921605E-02
 cg2d: Sum(rhs),rhsMax =  -1.24900090270330E-16  4.38387394936450E-02
 cg2d: Sum(rhs),rhsMax =  -1.04083408558608E-15  4.54379568929039E-02
 cg2d: Sum(rhs),rhsMax =  -1.41553435639707E-15  4.77259350311294E-02
 cg2d: Sum(rhs),rhsMax =  -1.63757896132211E-15  4.99949951852619E-02
 cg2d: Sum(rhs),rhsMax =  -1.47104550762833E-15  5.22073355442683E-02
 cg2d: Sum(rhs),rhsMax =  -1.23512311489549E-15  5.43317164329567E-02
 cg2d: Sum(rhs),rhsMax =  -1.06858966120171E-15  5.63476443752612E-02
 cg2d: Sum(rhs),rhsMax =  -1.38777878078145E-15  5.82478257056065E-02
 cg2d: Sum(rhs),rhsMax =  -1.22124532708767E-15  6.00385237081309E-02
 cg2d: Sum(rhs),rhsMax =  -1.19348975147204E-15  6.17377938844338E-02
 cg2d: Sum(rhs),rhsMax =  -9.43689570931383E-16  6.33719192623687E-02
 cg2d: Sum(rhs),rhsMax =  -6.93889390390723E-16  6.49706571421351E-02
 cg2d: Sum(rhs),rhsMax =  -6.66133814775094E-16  6.65620864833693E-02
 cg2d: Sum(rhs),rhsMax =  -1.08246744900953E-15  6.81678821984073E-02
 cg2d: Sum(rhs),rhsMax =  -1.13797860024079E-15  6.97997406020561E-02
 cg2d: Sum(rhs),rhsMax =  -1.55431223447522E-15  7.14574677278775E-02
 cg2d: Sum(rhs),rhsMax =  -1.52655665885959E-15  7.31289637732010E-02
 cg2d: Sum(rhs),rhsMax =  -1.49880108324396E-15  7.47920409307832E-02
 cg2d: Sum(rhs),rhsMax =  -7.77156117237610E-16  7.64177413506108E-02
 cg2d: Sum(rhs),rhsMax =  -1.08246744900953E-15  7.79746107647885E-02
 cg2d: Sum(rhs),rhsMax =  -8.04911692853238E-16  7.94332557140079E-02
 cg2d: Sum(rhs),rhsMax =  -6.10622663543836E-16  8.07704835263273E-02
 cg2d: Sum(rhs),rhsMax =  -7.49400541621981E-16  8.19723990824659E-02
 cg2d: Sum(rhs),rhsMax =  -6.66133814775094E-16  8.30360027105279E-02
 cg2d: Sum(rhs),rhsMax =  -9.71445146547012E-17  8.39690756602631E-02
 cg2d: Sum(rhs),rhsMax =  -1.24900090270330E-16  8.47884154606835E-02
 cg2d: Sum(rhs),rhsMax =   2.22044604925031E-16  8.55167462699757E-02
 cg2d: Sum(rhs),rhsMax =   1.52655665885959E-16  8.61788331221669E-02
 cg2d: Sum(rhs),rhsMax =  -2.22044604925031E-16  8.67974391385251E-02
 cg2d: Sum(rhs),rhsMax =  -8.32667268468867E-17  8.73897657434675E-02
 cg2d: Sum(rhs),rhsMax =   5.55111512312578E-17  8.79649135260614E-02
 cg2d: Sum(rhs),rhsMax =   4.16333634234434E-17  8.85227194144623E-02
 cg2d: Sum(rhs),rhsMax =   3.19189119579733E-16  8.90540988788350E-02
 cg2d: Sum(rhs),rhsMax =   4.30211422042248E-16  8.95427874317766E-02
 cg2d: Sum(rhs),rhsMax =   1.24900090270330E-16  8.99681679547958E-02
 cg2d: Sum(rhs),rhsMax =   6.24500451351651E-17  9.03087167364575E-02
 cg2d: Sum(rhs),rhsMax =   1.04083408558608E-16  9.05455205877070E-02
 cg2d: Sum(rhs),rhsMax =  -1.80411241501588E-16  9.06653197501486E-02
 cg2d: Sum(rhs),rhsMax =  -2.42861286636753E-16  9.06626158872136E-02
 cg2d: Sum(rhs),rhsMax =  -3.88578058618805E-16  9.05405391324354E-02
 cg2d: Sum(rhs),rhsMax =  -3.50414142147315E-16  9.03103694931346E-02
 cg2d: Sum(rhs),rhsMax =  -2.84494650060196E-16  8.99898235421829E-02
 cg2d: Sum(rhs),rhsMax =  -1.40512601554121E-16  8.96004113157179E-02
 cg2d: Sum(rhs),rhsMax =  -2.43511807940244E-16  8.91643080796309E-02
 cg2d: Sum(rhs),rhsMax =  -9.88792381306780E-17  8.87012486945421E-02
 cg2d: Sum(rhs),rhsMax =  -5.37764277552810E-16  8.82259308549490E-02
 cg2d: Sum(rhs),rhsMax =  -6.73072708679001E-16  8.77463150517565E-02
 cg2d: Sum(rhs),rhsMax =  -4.37150315946155E-16  8.72630538760306E-02
 cg2d: Sum(rhs),rhsMax =  -3.53883589099269E-16  8.67700989817837E-02
 cg2d: Sum(rhs),rhsMax =  -4.99600361081320E-16  8.62563504148034E-02
 cg2d: Sum(rhs),rhsMax =  -6.41847686111419E-16  8.57080572464964E-02
 cg2d: Sum(rhs),rhsMax =  -4.12864187282480E-16  8.51115719310372E-02
 cg2d: Sum(rhs),rhsMax =  -8.84708972748172E-16  8.44560172993023E-02
 cg2d: Sum(rhs),rhsMax =  -1.15185638804860E-15  8.37354496036871E-02
 cg2d: Sum(rhs),rhsMax =  -1.00267016911459E-15  8.29501890881605E-02
 cg2d: Sum(rhs),rhsMax =  -1.02305316995732E-15  8.21071273673049E-02
 cg2d: Sum(rhs),rhsMax =  -8.16187395447088E-16  8.12189866270866E-02
 cg2d: Sum(rhs),rhsMax =  -1.10501885419723E-15  8.03026724799494E-02
 cg2d: Sum(rhs),rhsMax =  -1.32706345912226E-15  7.93770028879011E-02
 cg2d: Sum(rhs),rhsMax =  -1.59421087442269E-15  7.84601871618982E-02
 cg2d: Sum(rhs),rhsMax =  -1.46063716677247E-15  7.75674578278977E-02
 cg2d: Sum(rhs),rhsMax =  -1.07899800205757E-15  7.67092216078020E-02
 cg2d: Sum(rhs),rhsMax =  -9.50628464835290E-16  7.58900025675504E-02
 cg2d: Sum(rhs),rhsMax =  -1.32185928869433E-15  7.51083180894558E-02
 cg2d: Sum(rhs),rhsMax =  -1.12410081243297E-15  7.43574792088286E-02
 cg2d: Sum(rhs),rhsMax =  -1.12410081243297E-15  7.36271644901623E-02
 cg2d: Sum(rhs),rhsMax =  -8.53483950180589E-16  7.29055020107175E-02
 cg2d: Sum(rhs),rhsMax =  -9.99200722162641E-16  7.21813231525065E-02
 --> objf_test(bi,bj)   = -0.849803573164827E+00
 --> objf_tracer(bi,bj) =  0.000000000000000E+00
 --> objf_atl(bi,bj)    =  0.000000000000000E+00
  local fc = -0.849803573164827E+00
 global fc = -0.849803573164827E+00
 ph-check fcpertplus =  -0.849803573
(PID.TID 0000.0001)  MDSREADFIELD: opening file: xx_depth.0000000000.001.001.data
 ph-check fcpertminus =  -0.849803598
(PID.TID 0000.0001)  MDSREADFIELD: opening file: xx_depth.0000000000.001.001.data
(PID.TID 0000.0001)  MDSREADFIELD: opening global file: walls.bigRidge
(PID.TID 0000.0001) // =======================================================
(PID.TID 0000.0001) // Field Bottom depths (ini_depths) at iteration          1
(PID.TID 0000.0001) // CMIN =         -5.000000000000000E+03
(PID.TID 0000.0001) // CMAX =         -2.000000000000000E+03
(PID.TID 0000.0001) // CINT =          1.111111111111111E+02
(PID.TID 0000.0001) // SYMBOLS (CMIN->CMAX): -abcdefghijklmnopqrstuvwxyz+
(PID.TID 0000.0001) //                  0.0: .
(PID.TID 0000.0001) // RANGE I (Lo:Hi:Step):(  -1:   7:   1)
(PID.TID 0000.0001) // RANGE J (Lo:Hi:Step):(   7:  -1:  -1)
(PID.TID 0000.0001) // RANGE K (Lo:Hi:Step):(   1:   1:   1)
(PID.TID 0000.0001) // =======================================================
(PID.TID 0000.0001) K =   1
(PID.TID 0000.0001) //
(PID.TID 0000.0001) // |--J--|*01234567
(PID.TID 0000.0001) //      7 ----+----
(PID.TID 0000.0001) //      6 .........
(PID.TID 0000.0001) //      5 ----+----
(PID.TID 0000.0001) //      4 ----+----
(PID.TID 0000.0001) //      3 ----+----
(PID.TID 0000.0001) //      2 ----+----
(PID.TID 0000.0001) //      1 .........
(PID.TID 0000.0001) //      0 ----+----
(PID.TID 0000.0001) //     -1 ----+----
(PID.TID 0000.0001) // =======================================================
(PID.TID 0000.0001) // END OF FIELD                                          =
(PID.TID 0000.0001) // =======================================================
(PID.TID 0000.0001) 
(PID.TID 0000.0001) // =======================================================
(PID.TID 0000.0001) // Field Model R_low (ini_masks_etc) at iteration          1
(PID.TID 0000.0001) // CMIN =         -5.000000000000000E+03
(PID.TID 0000.0001) // CMAX =         -2.000000000000000E+03
(PID.TID 0000.0001) // CINT =          1.111111111111111E+02
(PID.TID 0000.0001) // SYMBOLS (CMIN->CMAX): -abcdefghijklmnopqrstuvwxyz+
(PID.TID 0000.0001) //                  0.0: .
(PID.TID 0000.0001) // RANGE I (Lo:Hi:Step):(  -1:   7:   1)
(PID.TID 0000.0001) // RANGE J (Lo:Hi:Step):(   7:  -1:  -1)
(PID.TID 0000.0001) // RANGE K (Lo:Hi:Step):(   1:   1:   1)
(PID.TID 0000.0001) // =======================================================
(PID.TID 0000.0001) K =   1
(PID.TID 0000.0001) //
(PID.TID 0000.0001) // |--J--|*01234567
(PID.TID 0000.0001) //      7 ----+----
(PID.TID 0000.0001) //      6 .........
(PID.TID 0000.0001) //      5 ----+----
(PID.TID 0000.0001) //      4 ----+----
(PID.TID 0000.0001) //      3 ----+----
(PID.TID 0000.0001) //      2 ----+----
(PID.TID 0000.0001) //      1 .........
(PID.TID 0000.0001) //      0 ----+----
(PID.TID 0000.0001) //     -1 ----+----
(PID.TID 0000.0001) // =======================================================
(PID.TID 0000.0001) // END OF FIELD                                          =
(PID.TID 0000.0001) // =======================================================
(PID.TID 0000.0001) 
(PID.TID 0000.0001) // =======================================================
(PID.TID 0000.0001) // Field Model Ro_surf (ini_masks_etc) at iteration          1
(PID.TID 0000.0001) // CMIN =          2.273736754432321E-13
(PID.TID 0000.0001) // CMAX =          2.273736754432321E-13
(PID.TID 0000.0001) // CINT =          0.000000000000000E+00
(PID.TID 0000.0001) // SYMBOLS (CMIN->CMAX): -abcdefghijklmnopqrstuvwxyz+
(PID.TID 0000.0001) //                  0.0: .
(PID.TID 0000.0001) // RANGE I (Lo:Hi:Step):(  -1:   7:   1)
(PID.TID 0000.0001) // RANGE J (Lo:Hi:Step):(   7:  -1:  -1)
(PID.TID 0000.0001) // RANGE K (Lo:Hi:Step):(   1:   1:   1)
(PID.TID 0000.0001) // =======================================================
(PID.TID 0000.0001) // =======================================================
(PID.TID 0000.0001) // END OF FIELD                                          =
(PID.TID 0000.0001) // =======================================================
(PID.TID 0000.0001) 
(PID.TID 0000.0001) // =======================================================
(PID.TID 0000.0001) // Field hFacC at iteration          1
(PID.TID 0000.0001) // CMIN =          1.000000000000000E+00
(PID.TID 0000.0001) // CMAX =          1.000000000000000E+00
(PID.TID 0000.0001) // CINT =          0.000000000000000E+00
(PID.TID 0000.0001) // SYMBOLS (CMIN->CMAX): -abcdefghijklmnopqrstuvwxyz+
(PID.TID 0000.0001) //                  0.0: .
(PID.TID 0000.0001) // RANGE I (Lo:Hi:Step):(  -1:   7:   1)
(PID.TID 0000.0001) // RANGE J (Lo:Hi:Step):(   7:  -1:  -1)
(PID.TID 0000.0001) // RANGE K (Lo:Hi:Step):(   1:   1:   1)
(PID.TID 0000.0001) // =======================================================
(PID.TID 0000.0001) // =======================================================
(PID.TID 0000.0001) // END OF FIELD                                          =
(PID.TID 0000.0001) // =======================================================
(PID.TID 0000.0001) 
(PID.TID 0000.0001) // =======================================================
(PID.TID 0000.0001) // Field hFacW at iteration          1
(PID.TID 0000.0001) // CMIN =          1.000000000000000E+00
(PID.TID 0000.0001) // CMAX =          1.000000000000000E+00
(PID.TID 0000.0001) // CINT =          0.000000000000000E+00
(PID.TID 0000.0001) // SYMBOLS (CMIN->CMAX): -abcdefghijklmnopqrstuvwxyz+
(PID.TID 0000.0001) //                  0.0: .
(PID.TID 0000.0001) // RANGE I (Lo:Hi:Step):(  -1:   7:   1)
(PID.TID 0000.0001) // RANGE J (Lo:Hi:Step):(   7:  -1:  -1)
(PID.TID 0000.0001) // RANGE K (Lo:Hi:Step):(   1:   1:   1)
(PID.TID 0000.0001) // =======================================================
(PID.TID 0000.0001) // =======================================================
(PID.TID 0000.0001) // END OF FIELD                                          =
(PID.TID 0000.0001) // =======================================================
(PID.TID 0000.0001) 
(PID.TID 0000.0001) // =======================================================
(PID.TID 0000.0001) // Field hFacS at iteration          1
(PID.TID 0000.0001) // CMIN =          1.000000000000000E+00
(PID.TID 0000.0001) // CMAX =          1.000000000000000E+00
(PID.TID 0000.0001) // CINT =          0.000000000000000E+00
(PID.TID 0000.0001) // SYMBOLS (CMIN->CMAX): -abcdefghijklmnopqrstuvwxyz+
(PID.TID 0000.0001) //                  0.0: .
(PID.TID 0000.0001) // RANGE I (Lo:Hi:Step):(  -1:   7:   1)
(PID.TID 0000.0001) // RANGE J (Lo:Hi:Step):(   7:  -1:  -1)
(PID.TID 0000.0001) // RANGE K (Lo:Hi:Step):(   1:   1:   1)
(PID.TID 0000.0001) // =======================================================
(PID.TID 0000.0001) // =======================================================
(PID.TID 0000.0001) // END OF FIELD                                          =
(PID.TID 0000.0001) // =======================================================
(PID.TID 0000.0001) 
(PID.TID 0000.0001) %MON surfExpanfCori_max           =  -1.0735540000000E-04
(PID.TID 0000.0001) %MON surfExpanfCori_min           =  -1.1783060000000E-04
(PID.TID 0000.0001) %MON surfExpanfCori_mean          =  -1.1259300000000E-04
(PID.TID 0000.0001) %MON surfExpanfCori_sd            =   3.7035424771427E-06
(PID.TID 0000.0001) %MON surfExpanfCoriG_max          =  -1.0866480000000E-04
(PID.TID 0000.0001) %MON surfExpanfCoriG_min          =  -1.1914000000000E-04
(PID.TID 0000.0001) %MON surfExpanfCoriG_mean         =  -1.1390240000000E-04
(PID.TID 0000.0001) %MON surfExpanfCoriG_sd           =   3.7035424771427E-06
(PID.TID 0000.0001) %MON surfExpanfCoriCos_max        =   0.0000000000000E+00
(PID.TID 0000.0001) %MON surfExpanfCoriCos_min        =   0.0000000000000E+00
(PID.TID 0000.0001) %MON surfExpanfCoriCos_mean       =   0.0000000000000E+00
(PID.TID 0000.0001) %MON surfExpanfCoriCos_sd         =   0.0000000000000E+00
(PID.TID 0000.0001) INI_CG2D: CG2D normalisation factor =  1.9999999999999996E-04
(PID.TID 0000.0001) 
                     ctrl_depth_ini: ctrl update R_low,
                                     adding the control vector.
(PID.TID 0000.0001)  MDSREADFIELD: opening file: xx_depth.0000000000.001.001.data
(PID.TID 0000.0001) // =======================================================
(PID.TID 0000.0001) // Field Model Ro_surf (update_masks_etc) at iteration          1
(PID.TID 0000.0001) // CMIN =          2.273736754432321E-13
(PID.TID 0000.0001) // CMAX =          2.273736754432321E-13
(PID.TID 0000.0001) // CINT =          0.000000000000000E+00
(PID.TID 0000.0001) // SYMBOLS (CMIN->CMAX): -abcdefghijklmnopqrstuvwxyz+
(PID.TID 0000.0001) //                  0.0: .
(PID.TID 0000.0001) // RANGE I (Lo:Hi:Step):(  -1:   7:   1)
(PID.TID 0000.0001) // RANGE J (Lo:Hi:Step):(   7:  -1:  -1)
(PID.TID 0000.0001) // RANGE K (Lo:Hi:Step):(   1:   1:   1)
(PID.TID 0000.0001) // =======================================================
(PID.TID 0000.0001) // =======================================================
(PID.TID 0000.0001) // END OF FIELD                                          =
(PID.TID 0000.0001) // =======================================================
(PID.TID 0000.0001) 
(PID.TID 0000.0001) // =======================================================
(PID.TID 0000.0001) // Field hFacC at iteration          1
(PID.TID 0000.0001) // CMIN =          1.000000000000000E+00
(PID.TID 0000.0001) // CMAX =          1.000000000000000E+00
(PID.TID 0000.0001) // CINT =          0.000000000000000E+00
(PID.TID 0000.0001) // SYMBOLS (CMIN->CMAX): -abcdefghijklmnopqrstuvwxyz+
(PID.TID 0000.0001) //                  0.0: .
(PID.TID 0000.0001) // RANGE I (Lo:Hi:Step):(  -1:   7:   1)
(PID.TID 0000.0001) // RANGE J (Lo:Hi:Step):(   7:  -1:  -1)
(PID.TID 0000.0001) // RANGE K (Lo:Hi:Step):(   1:   1:   1)
(PID.TID 0000.0001) // =======================================================
(PID.TID 0000.0001) // =======================================================
(PID.TID 0000.0001) // END OF FIELD                                          =
(PID.TID 0000.0001) // =======================================================
(PID.TID 0000.0001) 
(PID.TID 0000.0001) // =======================================================
(PID.TID 0000.0001) // Field hFacW at iteration          1
(PID.TID 0000.0001) // CMIN =          1.000000000000000E+00
(PID.TID 0000.0001) // CMAX =          1.000000000000000E+00
(PID.TID 0000.0001) // CINT =          0.000000000000000E+00
(PID.TID 0000.0001) // SYMBOLS (CMIN->CMAX): -abcdefghijklmnopqrstuvwxyz+
(PID.TID 0000.0001) //                  0.0: .
(PID.TID 0000.0001) // RANGE I (Lo:Hi:Step):(  -1:   7:   1)
(PID.TID 0000.0001) // RANGE J (Lo:Hi:Step):(   7:  -1:  -1)
(PID.TID 0000.0001) // RANGE K (Lo:Hi:Step):(   1:   1:   1)
(PID.TID 0000.0001) // =======================================================
(PID.TID 0000.0001) // =======================================================
(PID.TID 0000.0001) // END OF FIELD                                          =
(PID.TID 0000.0001) // =======================================================
(PID.TID 0000.0001) 
(PID.TID 0000.0001) // =======================================================
(PID.TID 0000.0001) // Field hFacS at iteration          1
(PID.TID 0000.0001) // CMIN =          1.000000000000000E+00
(PID.TID 0000.0001) // CMAX =          1.000000000000000E+00
(PID.TID 0000.0001) // CINT =          0.000000000000000E+00
(PID.TID 0000.0001) // SYMBOLS (CMIN->CMAX): -abcdefghijklmnopqrstuvwxyz+
(PID.TID 0000.0001) //                  0.0: .
(PID.TID 0000.0001) // RANGE I (Lo:Hi:Step):(  -1:   7:   1)
(PID.TID 0000.0001) // RANGE J (Lo:Hi:Step):(   7:  -1:  -1)
(PID.TID 0000.0001) // RANGE K (Lo:Hi:Step):(   1:   1:   1)
(PID.TID 0000.0001) // =======================================================
(PID.TID 0000.0001) // =======================================================
(PID.TID 0000.0001) // END OF FIELD                                          =
(PID.TID 0000.0001) // =======================================================
(PID.TID 0000.0001) 
(PID.TID 0000.0001) // =======================================================
(PID.TID 0000.0001) // Field Initial Temperature at iteration          1
(PID.TID 0000.0001) // CMIN =          4.000000000000000E+00
(PID.TID 0000.0001) // CMAX =          4.000000000000000E+00
(PID.TID 0000.0001) // CINT =          0.000000000000000E+00
(PID.TID 0000.0001) // SYMBOLS (CMIN->CMAX): -abcdefghijklmnopqrstuvwxyz+
(PID.TID 0000.0001) //                  0.0: .
(PID.TID 0000.0001) // RANGE I (Lo:Hi:Step):(   1:   5:   1)
(PID.TID 0000.0001) // RANGE J (Lo:Hi:Step):(   5:   1:  -1)
(PID.TID 0000.0001) // RANGE K (Lo:Hi:Step):(   1:   1:   1)
(PID.TID 0000.0001) // =======================================================
(PID.TID 0000.0001) // =======================================================
(PID.TID 0000.0001) // END OF FIELD                                          =
(PID.TID 0000.0001) // =======================================================
(PID.TID 0000.0001) 
(PID.TID 0000.0001) // =======================================================
(PID.TID 0000.0001) // Field Initial Salinity at iteration          1
(PID.TID 0000.0001) // CMIN =          3.500000000000000E+01
(PID.TID 0000.0001) // CMAX =          3.500000000000000E+01
(PID.TID 0000.0001) // CINT =          0.000000000000000E+00
(PID.TID 0000.0001) // SYMBOLS (CMIN->CMAX): -abcdefghijklmnopqrstuvwxyz+
(PID.TID 0000.0001) //                  0.0: .
(PID.TID 0000.0001) // RANGE I (Lo:Hi:Step):(   1:   5:   1)
(PID.TID 0000.0001) // RANGE J (Lo:Hi:Step):(   5:   1:  -1)
(PID.TID 0000.0001) // RANGE K (Lo:Hi:Step):(   1:   1:   1)
(PID.TID 0000.0001) // =======================================================
(PID.TID 0000.0001) // =======================================================
(PID.TID 0000.0001) // END OF FIELD                                          =
(PID.TID 0000.0001) // =======================================================
(PID.TID 0000.0001) 
(PID.TID 0000.0001) Start initial hydrostatic pressure computation
(PID.TID 0000.0001) Pressure is predetermined for buoyancyRelation OCEANIC
(PID.TID 0000.0001) 
(PID.TID 0000.0001)  MDSREADFIELD: opening global file: windx.sin_y
(PID.TID 0000.0001) // =======================================================
(PID.TID 0000.0001) // Model current state
(PID.TID 0000.0001) // =======================================================
(PID.TID 0000.0001) 
 cg2d: Sum(rhs),rhsMax =   0.00000000000000E+00  0.00000000000000E+00
 cg2d: Sum(rhs),rhsMax =   4.68375338513738E-16  2.62483626325265E-03
 cg2d: Sum(rhs),rhsMax =   4.14598910758457E-16  5.13362633360734E-03
 cg2d: Sum(rhs),rhsMax =   5.77229236631283E-16  7.16168459208343E-03
 cg2d: Sum(rhs),rhsMax =   1.22211268882566E-15  9.29466755736269E-03
 cg2d: Sum(rhs),rhsMax =   9.40220123979429E-16  1.15304356743592E-02
 cg2d: Sum(rhs),rhsMax =   1.00310384998359E-15  1.37809802264419E-02
 cg2d: Sum(rhs),rhsMax =   7.14706072102445E-16  1.60011247343953E-02
 cg2d: Sum(rhs),rhsMax =   9.36750677027476E-16  1.82027338006530E-02
 cg2d: Sum(rhs),rhsMax =   7.35522753814166E-16  2.04493561008770E-02
 cg2d: Sum(rhs),rhsMax =   5.41233724504764E-16  2.25706027930345E-02
 cg2d: Sum(rhs),rhsMax =  -3.60822483003176E-16  2.45301657418904E-02
 cg2d: Sum(rhs),rhsMax =  -3.60822483003176E-16  2.63097944708863E-02
 cg2d: Sum(rhs),rhsMax =  -2.08166817117217E-16  2.79110497638697E-02
 cg2d: Sum(rhs),rhsMax =  -1.24900090270330E-16  2.93538602902003E-02
 cg2d: Sum(rhs),rhsMax =   8.32667268468867E-17  3.06720439731926E-02
 cg2d: Sum(rhs),rhsMax =  -6.52256026967279E-16  3.19067817342613E-02
 cg2d: Sum(rhs),rhsMax =  -2.49800180540660E-16  3.30992668484637E-02
 cg2d: Sum(rhs),rhsMax =   5.55111512312578E-17  3.42837433802208E-02
 cg2d: Sum(rhs),rhsMax =   4.16333634234434E-16  3.54819651858382E-02
 cg2d: Sum(rhs),rhsMax =   7.77156117237610E-16  3.66998059649506E-02
 cg2d: Sum(rhs),rhsMax =   3.46944695195361E-16  3.79264046809708E-02
 cg2d: Sum(rhs),rhsMax =   2.98372437868011E-16  3.91358859807655E-02
 cg2d: Sum(rhs),rhsMax =   3.46944695195361E-16  4.02913640794758E-02
 cg2d: Sum(rhs),rhsMax =  -5.55111512312578E-17  4.13506296317204E-02
 cg2d: Sum(rhs),rhsMax =  -1.52655665885959E-16  4.22726608446593E-02
 cg2d: Sum(rhs),rhsMax =  -1.24900090270330E-16  4.30239437142568E-02
 cg2d: Sum(rhs),rhsMax =  -3.33066907387547E-16  4.35835864256708E-02
 cg2d: Sum(rhs),rhsMax =  -3.88578058618805E-16  4.39463980658304E-02
 cg2d: Sum(rhs),rhsMax =  -7.63278329429795E-16  4.41234516910830E-02
 cg2d: Sum(rhs),rhsMax =  -9.43689570931383E-16  4.41400964631574E-02
 cg2d: Sum(rhs),rhsMax =  -1.33226762955019E-15  4.40318243806435E-02
 cg2d: Sum(rhs),rhsMax =  -7.07767178198537E-16  4.38387400024468E-02
 cg2d: Sum(rhs),rhsMax =  -7.35522753814166E-16  4.54379559940052E-02
 cg2d: Sum(rhs),rhsMax =  -8.04911692853238E-16  4.77259341351659E-02
 cg2d: Sum(rhs),rhsMax =   5.55111512312578E-17  4.99949942961765E-02
 cg2d: Sum(rhs),rhsMax =   1.66533453693773E-16  5.22073346655050E-02
 cg2d: Sum(rhs),rhsMax =   5.55111512312578E-17  5.43317155675175E-02
 cg2d: Sum(rhs),rhsMax =   2.35922392732846E-16  5.63476435258356E-02
 cg2d: Sum(rhs),rhsMax =   2.49800180540660E-16  5.82478248747487E-02
 cg2d: Sum(rhs),rhsMax =   3.60822483003176E-16  6.00385228984547E-02
 cg2d: Sum(rhs),rhsMax =   5.82867087928207E-16  6.17377930987909E-02
 cg2d: Sum(rhs),rhsMax =   5.55111512312578E-16  6.33719185039813E-02
 cg2d: Sum(rhs),rhsMax =   4.16333634234434E-16  6.49706564146598E-02
 cg2d: Sum(rhs),rhsMax =   3.60822483003176E-16  6.65620857908842E-02
 cg2d: Sum(rhs),rhsMax =   9.71445146547012E-16  6.81678815453224E-02
 cg2d: Sum(rhs),rhsMax =   3.88578058618805E-16  6.97997399929619E-02
 cg2d: Sum(rhs),rhsMax =   3.60822483003176E-16  7.14574671673562E-02
 cg2d: Sum(rhs),rhsMax =   5.55111512312578E-16  7.31289632656283E-02
 cg2d: Sum(rhs),rhsMax =   4.44089209850063E-16  7.47920404801506E-02
 cg2d: Sum(rhs),rhsMax =   5.55111512312578E-17  7.64177409603939E-02
 cg2d: Sum(rhs),rhsMax =  -8.32667268468867E-17  7.79746104378798E-02
 cg2d: Sum(rhs),rhsMax =  -7.49400541621981E-16  7.94332554527214E-02
 cg2d: Sum(rhs),rhsMax =  -8.60422844084496E-16  8.07704833324707E-02
 cg2d: Sum(rhs),rhsMax =  -1.02695629777827E-15  8.19723989574669E-02
 cg2d: Sum(rhs),rhsMax =  -8.88178419700125E-16  8.30360026555922E-02
 cg2d: Sum(rhs),rhsMax =  -2.49800180540660E-16  8.39690756765376E-02
 cg2d: Sum(rhs),rhsMax =  -2.77555756156289E-16  8.47884155493968E-02
 cg2d: Sum(rhs),rhsMax =  -2.91433543964104E-16  8.55167464325354E-02
 cg2d: Sum(rhs),rhsMax =   0.00000000000000E+00  8.61788333601960E-02
 cg2d: Sum(rhs),rhsMax =  -1.94289029309402E-16  8.67974394538340E-02
 cg2d: Sum(rhs),rhsMax =  -4.30211422042248E-16  8.73897661379657E-02
 cg2d: Sum(rhs),rhsMax =  -5.82867087928207E-16  8.79649140016226E-02
 cg2d: Sum(rhs),rhsMax =  -8.88178419700125E-16  8.85227199727651E-02
 cg2d: Sum(rhs),rhsMax =  -7.49400541621981E-16  8.90540995212017E-02
 cg2d: Sum(rhs),rhsMax =  -5.68989300120393E-16  8.95427881590360E-02
 cg2d: Sum(rhs),rhsMax =  -2.22044604925031E-16  8.99681687671885E-02
 cg2d: Sum(rhs),rhsMax =   1.38777878078145E-16  9.03087176335955E-02
 cg2d: Sum(rhs),rhsMax =   2.63677968348475E-16  9.05455215685951E-02
 cg2d: Sum(rhs),rhsMax =   2.22044604925031E-16  9.06653208132589E-02
 cg2d: Sum(rhs),rhsMax =   1.66533453693773E-16  9.06626170306013E-02
 cg2d: Sum(rhs),rhsMax =   3.19189119579733E-16  9.05405403538779E-02
 cg2d: Sum(rhs),rhsMax =   5.44703171456717E-16  9.03103707902709E-02
 cg2d: Sum(rhs),rhsMax =   4.26741975090295E-16  8.99898249126331E-02
 cg2d: Sum(rhs),rhsMax =   2.51534904016637E-16  8.96004127571648E-02
 cg2d: Sum(rhs),rhsMax =   1.22514845490862E-16  8.91643095898550E-02
 cg2d: Sum(rhs),rhsMax =   5.10008701937181E-16  8.87012502714054E-02
 cg2d: Sum(rhs),rhsMax =   2.32452945780892E-16  8.82259324963343E-02
 cg2d: Sum(rhs),rhsMax =   0.00000000000000E+00  8.77463167554748E-02
 cg2d: Sum(rhs),rhsMax =  -2.25514051876985E-16  8.72630556397131E-02
 cg2d: Sum(rhs),rhsMax =  -5.96744875736022E-16  8.67701008027776E-02
 cg2d: Sum(rhs),rhsMax =  -7.52869988573934E-16  8.62563522900895E-02
 cg2d: Sum(rhs),rhsMax =  -9.07260377935870E-16  8.57080591726433E-02
 cg2d: Sum(rhs),rhsMax =  -1.19869392189997E-15  8.51115739041985E-02
 cg2d: Sum(rhs),rhsMax =  -1.92207361138230E-15  8.44560193152604E-02
 cg2d: Sum(rhs),rhsMax =  -1.68788594212543E-15  8.37354516579347E-02
 cg2d: Sum(rhs),rhsMax =  -1.75207071073658E-15  8.29501911760099E-02
 cg2d: Sum(rhs),rhsMax =  -1.36652841820073E-15  8.21071294840100E-02
 cg2d: Sum(rhs),rhsMax =  -1.58813934225677E-15  8.12189887679575E-02
 cg2d: Sum(rhs),rhsMax =  -1.60895602396849E-15  8.03026746404475E-02
 cg2d: Sum(rhs),rhsMax =  -1.75380543421255E-15  7.93770050636998E-02
 cg2d: Sum(rhs),rhsMax =  -1.95503335742586E-15  7.84601893489054E-02
 cg2d: Sum(rhs),rhsMax =  -1.61676227961038E-15  7.75674600222379E-02
 cg2d: Sum(rhs),rhsMax =  -1.60635393875452E-15  7.67092238057661E-02
 cg2d: Sum(rhs),rhsMax =  -1.98799310346942E-15  7.58900047655229E-02
 cg2d: Sum(rhs),rhsMax =  -2.21350715534641E-15  7.51083202838345E-02
 cg2d: Sum(rhs),rhsMax =  -2.32452945780892E-15  7.43574813959516E-02
 cg2d: Sum(rhs),rhsMax =  -2.35228503342455E-15  7.36271666662553E-02
 cg2d: Sum(rhs),rhsMax =  -2.23432383705813E-15  7.29055041718718E-02
 cg2d: Sum(rhs),rhsMax =  -2.42861286636753E-15  7.21813252946917E-02
 --> objf_test(bi,bj)   = -0.849803622722987E+00
 --> objf_tracer(bi,bj) =  0.000000000000000E+00
 --> objf_atl(bi,bj)    =  0.000000000000000E+00
  local fc = -0.849803622722987E+00
 global fc = -0.849803622722987E+00
(PID.TID 0000.0001)  MDSREADFIELD: opening file: xx_depth.0000000000.001.001.data
 grad-res -------------------------------
 grad-res     0   12    2    4    1   -.849803598E+00 -.849803573E+00 -.849803623E+00
 grad-res     0   12   12   12   20   0.247788983E-03 0.247790798E-03 -.732572053E-05
(PID.TID 0000.0001)       precision_grdchk_result ADM    -8.49803597943908E-01     2.47788983202668E-04
 ph-grd  ierr ---------------------------
 ph-grd  ierr =  0, icomp =  12, ichknum =  12
(PID.TID 0000.0001)  MDSREADFIELD: opening file: adxx_depth.0000000000.001.001.data
(PID.TID 0000.0001)  MDSREADFIELD: opening file: xx_depth.0000000000.001.001.data
(PID.TID 0000.0001)  MDSREADFIELD: opening global file: walls.bigRidge
(PID.TID 0000.0001) // =======================================================
(PID.TID 0000.0001) // Field Bottom depths (ini_depths) at iteration          1
(PID.TID 0000.0001) // CMIN =         -5.000000000000000E+03
(PID.TID 0000.0001) // CMAX =         -2.000000000000000E+03
(PID.TID 0000.0001) // CINT =          1.111111111111111E+02
(PID.TID 0000.0001) // SYMBOLS (CMIN->CMAX): -abcdefghijklmnopqrstuvwxyz+
(PID.TID 0000.0001) //                  0.0: .
(PID.TID 0000.0001) // RANGE I (Lo:Hi:Step):(  -1:   7:   1)
(PID.TID 0000.0001) // RANGE J (Lo:Hi:Step):(   7:  -1:  -1)
(PID.TID 0000.0001) // RANGE K (Lo:Hi:Step):(   1:   1:   1)
(PID.TID 0000.0001) // =======================================================
(PID.TID 0000.0001) K =   1
(PID.TID 0000.0001) //
(PID.TID 0000.0001) // |--J--|*01234567
(PID.TID 0000.0001) //      7 ----+----
(PID.TID 0000.0001) //      6 .........
(PID.TID 0000.0001) //      5 ----+----
(PID.TID 0000.0001) //      4 ----+----
(PID.TID 0000.0001) //      3 ----+----
(PID.TID 0000.0001) //      2 ----+----
(PID.TID 0000.0001) //      1 .........
(PID.TID 0000.0001) //      0 ----+----
(PID.TID 0000.0001) //     -1 ----+----
(PID.TID 0000.0001) // =======================================================
(PID.TID 0000.0001) // END OF FIELD                                          =
(PID.TID 0000.0001) // =======================================================
(PID.TID 0000.0001) 
(PID.TID 0000.0001) // =======================================================
(PID.TID 0000.0001) // Field Model R_low (ini_masks_etc) at iteration          1
(PID.TID 0000.0001) // CMIN =         -5.000000000000000E+03
(PID.TID 0000.0001) // CMAX =         -2.000000000000000E+03
(PID.TID 0000.0001) // CINT =          1.111111111111111E+02
(PID.TID 0000.0001) // SYMBOLS (CMIN->CMAX): -abcdefghijklmnopqrstuvwxyz+
(PID.TID 0000.0001) //                  0.0: .
(PID.TID 0000.0001) // RANGE I (Lo:Hi:Step):(  -1:   7:   1)
(PID.TID 0000.0001) // RANGE J (Lo:Hi:Step):(   7:  -1:  -1)
(PID.TID 0000.0001) // RANGE K (Lo:Hi:Step):(   1:   1:   1)
(PID.TID 0000.0001) // =======================================================
(PID.TID 0000.0001) K =   1
(PID.TID 0000.0001) //
(PID.TID 0000.0001) // |--J--|*01234567
(PID.TID 0000.0001) //      7 ----+----
(PID.TID 0000.0001) //      6 .........
(PID.TID 0000.0001) //      5 ----+----
(PID.TID 0000.0001) //      4 ----+----
(PID.TID 0000.0001) //      3 ----+----
(PID.TID 0000.0001) //      2 ----+----
(PID.TID 0000.0001) //      1 .........
(PID.TID 0000.0001) //      0 ----+----
(PID.TID 0000.0001) //     -1 ----+----
(PID.TID 0000.0001) // =======================================================
(PID.TID 0000.0001) // END OF FIELD                                          =
(PID.TID 0000.0001) // =======================================================
(PID.TID 0000.0001) 
(PID.TID 0000.0001) // =======================================================
(PID.TID 0000.0001) // Field Model Ro_surf (ini_masks_etc) at iteration          1
(PID.TID 0000.0001) // CMIN =          2.273736754432321E-13
(PID.TID 0000.0001) // CMAX =          2.273736754432321E-13
(PID.TID 0000.0001) // CINT =          0.000000000000000E+00
(PID.TID 0000.0001) // SYMBOLS (CMIN->CMAX): -abcdefghijklmnopqrstuvwxyz+
(PID.TID 0000.0001) //                  0.0: .
(PID.TID 0000.0001) // RANGE I (Lo:Hi:Step):(  -1:   7:   1)
(PID.TID 0000.0001) // RANGE J (Lo:Hi:Step):(   7:  -1:  -1)
(PID.TID 0000.0001) // RANGE K (Lo:Hi:Step):(   1:   1:   1)
(PID.TID 0000.0001) // =======================================================
(PID.TID 0000.0001) // =======================================================
(PID.TID 0000.0001) // END OF FIELD                                          =
(PID.TID 0000.0001) // =======================================================
(PID.TID 0000.0001) 
(PID.TID 0000.0001) // =======================================================
(PID.TID 0000.0001) // Field hFacC at iteration          1
(PID.TID 0000.0001) // CMIN =          1.000000000000000E+00
(PID.TID 0000.0001) // CMAX =          1.000000000000000E+00
(PID.TID 0000.0001) // CINT =          0.000000000000000E+00
(PID.TID 0000.0001) // SYMBOLS (CMIN->CMAX): -abcdefghijklmnopqrstuvwxyz+
(PID.TID 0000.0001) //                  0.0: .
(PID.TID 0000.0001) // RANGE I (Lo:Hi:Step):(  -1:   7:   1)
(PID.TID 0000.0001) // RANGE J (Lo:Hi:Step):(   7:  -1:  -1)
(PID.TID 0000.0001) // RANGE K (Lo:Hi:Step):(   1:   1:   1)
(PID.TID 0000.0001) // =======================================================
(PID.TID 0000.0001) // =======================================================
(PID.TID 0000.0001) // END OF FIELD                                          =
(PID.TID 0000.0001) // =======================================================
(PID.TID 0000.0001) 
(PID.TID 0000.0001) // =======================================================
(PID.TID 0000.0001) // Field hFacW at iteration          1
(PID.TID 0000.0001) // CMIN =          1.000000000000000E+00
(PID.TID 0000.0001) // CMAX =          1.000000000000000E+00
(PID.TID 0000.0001) // CINT =          0.000000000000000E+00
(PID.TID 0000.0001) // SYMBOLS (CMIN->CMAX): -abcdefghijklmnopqrstuvwxyz+
(PID.TID 0000.0001) //                  0.0: .
(PID.TID 0000.0001) // RANGE I (Lo:Hi:Step):(  -1:   7:   1)
(PID.TID 0000.0001) // RANGE J (Lo:Hi:Step):(   7:  -1:  -1)
(PID.TID 0000.0001) // RANGE K (Lo:Hi:Step):(   1:   1:   1)
(PID.TID 0000.0001) // =======================================================
(PID.TID 0000.0001) // =======================================================
(PID.TID 0000.0001) // END OF FIELD                                          =
(PID.TID 0000.0001) // =======================================================
(PID.TID 0000.0001) 
(PID.TID 0000.0001) // =======================================================
(PID.TID 0000.0001) // Field hFacS at iteration          1
(PID.TID 0000.0001) // CMIN =          1.000000000000000E+00
(PID.TID 0000.0001) // CMAX =          1.000000000000000E+00
(PID.TID 0000.0001) // CINT =          0.000000000000000E+00
(PID.TID 0000.0001) // SYMBOLS (CMIN->CMAX): -abcdefghijklmnopqrstuvwxyz+
(PID.TID 0000.0001) //                  0.0: .
(PID.TID 0000.0001) // RANGE I (Lo:Hi:Step):(  -1:   7:   1)
(PID.TID 0000.0001) // RANGE J (Lo:Hi:Step):(   7:  -1:  -1)
(PID.TID 0000.0001) // RANGE K (Lo:Hi:Step):(   1:   1:   1)
(PID.TID 0000.0001) // =======================================================
(PID.TID 0000.0001) // =======================================================
(PID.TID 0000.0001) // END OF FIELD                                          =
(PID.TID 0000.0001) // =======================================================
(PID.TID 0000.0001) 
(PID.TID 0000.0001) %MON surfExpanfCori_max           =  -1.0735540000000E-04
(PID.TID 0000.0001) %MON surfExpanfCori_min           =  -1.1783060000000E-04
(PID.TID 0000.0001) %MON surfExpanfCori_mean          =  -1.1259300000000E-04
(PID.TID 0000.0001) %MON surfExpanfCori_sd            =   3.7035424771427E-06
(PID.TID 0000.0001) %MON surfExpanfCoriG_max          =  -1.0866480000000E-04
(PID.TID 0000.0001) %MON surfExpanfCoriG_min          =  -1.1914000000000E-04
(PID.TID 0000.0001) %MON surfExpanfCoriG_mean         =  -1.1390240000000E-04
(PID.TID 0000.0001) %MON surfExpanfCoriG_sd           =   3.7035424771427E-06
(PID.TID 0000.0001) %MON surfExpanfCoriCos_max        =   0.0000000000000E+00
(PID.TID 0000.0001) %MON surfExpanfCoriCos_min        =   0.0000000000000E+00
(PID.TID 0000.0001) %MON surfExpanfCoriCos_mean       =   0.0000000000000E+00
(PID.TID 0000.0001) %MON surfExpanfCoriCos_sd         =   0.0000000000000E+00
(PID.TID 0000.0001) INI_CG2D: CG2D normalisation factor =  1.9999999999999996E-04
(PID.TID 0000.0001) 
                     ctrl_depth_ini: ctrl update R_low,
                                     adding the control vector.
(PID.TID 0000.0001)  MDSREADFIELD: opening file: xx_depth.0000000000.001.001.data
(PID.TID 0000.0001) // =======================================================
(PID.TID 0000.0001) // Field Model Ro_surf (update_masks_etc) at iteration          1
(PID.TID 0000.0001) // CMIN =          2.273736754432321E-13
(PID.TID 0000.0001) // CMAX =          2.273736754432321E-13
(PID.TID 0000.0001) // CINT =          0.000000000000000E+00
(PID.TID 0000.0001) // SYMBOLS (CMIN->CMAX): -abcdefghijklmnopqrstuvwxyz+
(PID.TID 0000.0001) //                  0.0: .
(PID.TID 0000.0001) // RANGE I (Lo:Hi:Step):(  -1:   7:   1)
(PID.TID 0000.0001) // RANGE J (Lo:Hi:Step):(   7:  -1:  -1)
(PID.TID 0000.0001) // RANGE K (Lo:Hi:Step):(   1:   1:   1)
(PID.TID 0000.0001) // =======================================================
(PID.TID 0000.0001) // =======================================================
(PID.TID 0000.0001) // END OF FIELD                                          =
(PID.TID 0000.0001) // =======================================================
(PID.TID 0000.0001) 
(PID.TID 0000.0001) // =======================================================
(PID.TID 0000.0001) // Field hFacC at iteration          1
(PID.TID 0000.0001) // CMIN =          1.000000000000000E+00
(PID.TID 0000.0001) // CMAX =          1.000000000000000E+00
(PID.TID 0000.0001) // CINT =          0.000000000000000E+00
(PID.TID 0000.0001) // SYMBOLS (CMIN->CMAX): -abcdefghijklmnopqrstuvwxyz+
(PID.TID 0000.0001) //                  0.0: .
(PID.TID 0000.0001) // RANGE I (Lo:Hi:Step):(  -1:   7:   1)
(PID.TID 0000.0001) // RANGE J (Lo:Hi:Step):(   7:  -1:  -1)
(PID.TID 0000.0001) // RANGE K (Lo:Hi:Step):(   1:   1:   1)
(PID.TID 0000.0001) // =======================================================
(PID.TID 0000.0001) // =======================================================
(PID.TID 0000.0001) // END OF FIELD                                          =
(PID.TID 0000.0001) // =======================================================
(PID.TID 0000.0001) 
(PID.TID 0000.0001) // =======================================================
(PID.TID 0000.0001) // Field hFacW at iteration          1
(PID.TID 0000.0001) // CMIN =          1.000000000000000E+00
(PID.TID 0000.0001) // CMAX =          1.000000000000000E+00
(PID.TID 0000.0001) // CINT =          0.000000000000000E+00
(PID.TID 0000.0001) // SYMBOLS (CMIN->CMAX): -abcdefghijklmnopqrstuvwxyz+
(PID.TID 0000.0001) //                  0.0: .
(PID.TID 0000.0001) // RANGE I (Lo:Hi:Step):(  -1:   7:   1)
(PID.TID 0000.0001) // RANGE J (Lo:Hi:Step):(   7:  -1:  -1)
(PID.TID 0000.0001) // RANGE K (Lo:Hi:Step):(   1:   1:   1)
(PID.TID 0000.0001) // =======================================================
(PID.TID 0000.0001) // =======================================================
(PID.TID 0000.0001) // END OF FIELD                                          =
(PID.TID 0000.0001) // =======================================================
(PID.TID 0000.0001) 
(PID.TID 0000.0001) // =======================================================
(PID.TID 0000.0001) // Field hFacS at iteration          1
(PID.TID 0000.0001) // CMIN =          1.000000000000000E+00
(PID.TID 0000.0001) // CMAX =          1.000000000000000E+00
(PID.TID 0000.0001) // CINT =          0.000000000000000E+00
(PID.TID 0000.0001) // SYMBOLS (CMIN->CMAX): -abcdefghijklmnopqrstuvwxyz+
(PID.TID 0000.0001) //                  0.0: .
(PID.TID 0000.0001) // RANGE I (Lo:Hi:Step):(  -1:   7:   1)
(PID.TID 0000.0001) // RANGE J (Lo:Hi:Step):(   7:  -1:  -1)
(PID.TID 0000.0001) // RANGE K (Lo:Hi:Step):(   1:   1:   1)
(PID.TID 0000.0001) // =======================================================
(PID.TID 0000.0001) // =======================================================
(PID.TID 0000.0001) // END OF FIELD                                          =
(PID.TID 0000.0001) // =======================================================
(PID.TID 0000.0001) 
(PID.TID 0000.0001) // =======================================================
(PID.TID 0000.0001) // Field Initial Temperature at iteration          1
(PID.TID 0000.0001) // CMIN =          4.000000000000000E+00
(PID.TID 0000.0001) // CMAX =          4.000000000000000E+00
(PID.TID 0000.0001) // CINT =          0.000000000000000E+00
(PID.TID 0000.0001) // SYMBOLS (CMIN->CMAX): -abcdefghijklmnopqrstuvwxyz+
(PID.TID 0000.0001) //                  0.0: .
(PID.TID 0000.0001) // RANGE I (Lo:Hi:Step):(   1:   5:   1)
(PID.TID 0000.0001) // RANGE J (Lo:Hi:Step):(   5:   1:  -1)
(PID.TID 0000.0001) // RANGE K (Lo:Hi:Step):(   1:   1:   1)
(PID.TID 0000.0001) // =======================================================
(PID.TID 0000.0001) // =======================================================
(PID.TID 0000.0001) // END OF FIELD                                          =
(PID.TID 0000.0001) // =======================================================
(PID.TID 0000.0001) 
(PID.TID 0000.0001) // =======================================================
(PID.TID 0000.0001) // Field Initial Salinity at iteration          1
(PID.TID 0000.0001) // CMIN =          3.500000000000000E+01
(PID.TID 0000.0001) // CMAX =          3.500000000000000E+01
(PID.TID 0000.0001) // CINT =          0.000000000000000E+00
(PID.TID 0000.0001) // SYMBOLS (CMIN->CMAX): -abcdefghijklmnopqrstuvwxyz+
(PID.TID 0000.0001) //                  0.0: .
(PID.TID 0000.0001) // RANGE I (Lo:Hi:Step):(   1:   5:   1)
(PID.TID 0000.0001) // RANGE J (Lo:Hi:Step):(   5:   1:  -1)
(PID.TID 0000.0001) // RANGE K (Lo:Hi:Step):(   1:   1:   1)
(PID.TID 0000.0001) // =======================================================
(PID.TID 0000.0001) // =======================================================
(PID.TID 0000.0001) // END OF FIELD                                          =
(PID.TID 0000.0001) // =======================================================
(PID.TID 0000.0001) 
(PID.TID 0000.0001) Start initial hydrostatic pressure computation
(PID.TID 0000.0001) Pressure is predetermined for buoyancyRelation OCEANIC
(PID.TID 0000.0001) 
(PID.TID 0000.0001)  MDSREADFIELD: opening global file: windx.sin_y
(PID.TID 0000.0001) // =======================================================
(PID.TID 0000.0001) // Model current state
(PID.TID 0000.0001) // =======================================================
(PID.TID 0000.0001) 
 cg2d: Sum(rhs),rhsMax =   0.00000000000000E+00  0.00000000000000E+00
 cg2d: Sum(rhs),rhsMax =   4.68375338513738E-16  2.62483626325265E-03
 cg2d: Sum(rhs),rhsMax =   4.69242700251726E-16  5.13362633360820E-03
 cg2d: Sum(rhs),rhsMax =   1.10762093941119E-15  7.16168459780001E-03
 cg2d: Sum(rhs),rhsMax =   6.68735899989059E-16  9.29466756751944E-03
 cg2d: Sum(rhs),rhsMax =   1.90819582357449E-16  1.15304356902666E-02
 cg2d: Sum(rhs),rhsMax =  -5.26054894089967E-16  1.37809802479486E-02
 cg2d: Sum(rhs),rhsMax =  -1.32532873564628E-15  1.60011247598867E-02
 cg2d: Sum(rhs),rhsMax =  -1.15879528195251E-15  1.82027337846798E-02
 cg2d: Sum(rhs),rhsMax =  -1.15185638804860E-15  2.04493560775521E-02
 cg2d: Sum(rhs),rhsMax =  -8.88178419700125E-16  2.25706027594633E-02
 cg2d: Sum(rhs),rhsMax =  -4.30211422042248E-16  2.45301656946861E-02
 cg2d: Sum(rhs),rhsMax =  -5.55111512312578E-16  2.63097944064022E-02
 cg2d: Sum(rhs),rhsMax =  -7.63278329429795E-16  2.79110496784694E-02
 cg2d: Sum(rhs),rhsMax =  -1.91513471747840E-15  2.93538601805319E-02
 cg2d: Sum(rhs),rhsMax =  -1.83880688453542E-15  3.06720438364340E-02
 cg2d: Sum(rhs),rhsMax =  -1.63757896132211E-15  3.19067815682989E-02
 cg2d: Sum(rhs),rhsMax =  -1.49186218934005E-15  3.30992666519834E-02
 cg2d: Sum(rhs),rhsMax =  -9.57567358739198E-16  3.42837431527033E-02
 cg2d: Sum(rhs),rhsMax =  -1.23512311489549E-15  3.54819649274626E-02
 cg2d: Sum(rhs),rhsMax =  -1.41553435639707E-15  3.66998056764287E-02
 cg2d: Sum(rhs),rhsMax =  -4.37150315946155E-16  3.79264043633388E-02
 cg2d: Sum(rhs),rhsMax =  -5.68989300120393E-16  3.91358856351689E-02
 cg2d: Sum(rhs),rhsMax =  -1.38777878078145E-16  4.02913637069815E-02
 cg2d: Sum(rhs),rhsMax =   0.00000000000000E+00  4.13506292331835E-02
 cg2d: Sum(rhs),rhsMax =  -1.38777878078145E-17  4.22726604206621E-02
 cg2d: Sum(rhs),rhsMax =   2.91433543964104E-16  4.30239432651273E-02
 cg2d: Sum(rhs),rhsMax =  -8.32667268468867E-17  4.35835859515729E-02
 cg2d: Sum(rhs),rhsMax =   4.16333634234434E-16  4.39463975669086E-02
 cg2d: Sum(rhs),rhsMax =   5.96744875736022E-16  4.41234511676353E-02
 cg2d: Sum(rhs),rhsMax =   6.24500451351651E-16  4.41400959158069E-02
 cg2d: Sum(rhs),rhsMax =  -3.46944695195361E-16  4.40318238104809E-02
 cg2d: Sum(rhs),rhsMax =  -2.22044604925031E-16  4.38387394111198E-02
 cg2d: Sum(rhs),rhsMax =   5.55111512312578E-16  4.54379563954070E-02
 cg2d: Sum(rhs),rhsMax =   7.07767178198537E-16  4.77259344961794E-02
 cg2d: Sum(rhs),rhsMax =   9.15933995315754E-16  4.99949946132669E-02
 cg2d: Sum(rhs),rhsMax =   3.60822483003176E-16  5.22073349332495E-02
 cg2d: Sum(rhs),rhsMax =   5.13478148889135E-16  5.43317157786679E-02
 cg2d: Sum(rhs),rhsMax =  -1.11022302462516E-16  5.63476436716856E-02
 cg2d: Sum(rhs),rhsMax =   1.38777878078145E-16  5.82478249457436E-02
 cg2d: Sum(rhs),rhsMax =  -5.55111512312578E-17  6.00385228849439E-02
 cg2d: Sum(rhs),rhsMax =   1.66533453693773E-16  6.17377929918071E-02
 cg2d: Sum(rhs),rhsMax =  -1.94289029309402E-16  6.33719182959255E-02
 cg2d: Sum(rhs),rhsMax =  -5.55111512312578E-17  6.49706560997923E-02
 cg2d: Sum(rhs),rhsMax =  -2.22044604925031E-16  6.65620853655493E-02
 cg2d: Sum(rhs),rhsMax =  -2.77555756156289E-17  6.81678810078836E-02
 cg2d: Sum(rhs),rhsMax =  -4.16333634234434E-16  6.97997393434656E-02
 cg2d: Sum(rhs),rhsMax =  -2.22044604925031E-16  7.14574664069851E-02
 cg2d: Sum(rhs),rhsMax =  -3.33066907387547E-16  7.31289623960361E-02
 cg2d: Sum(rhs),rhsMax =   8.32667268468867E-17  7.47920395027869E-02
 cg2d: Sum(rhs),rhsMax =   2.22044604925031E-16  7.64177398759238E-02
 cg2d: Sum(rhs),rhsMax =  -1.94289029309402E-16  7.79746092457866E-02
 cg2d: Sum(rhs),rhsMax =  -5.55111512312578E-17  7.94332541511497E-02
 cg2d: Sum(rhs),rhsMax =   1.94289029309402E-16  8.07704819183271E-02
 cg2d: Sum(rhs),rhsMax =   1.38777878078145E-16  8.19723974267566E-02
 cg2d: Sum(rhs),rhsMax =   9.43689570931383E-16  8.30360010039321E-02
 cg2d: Sum(rhs),rhsMax =   1.42941214420489E-15  8.39690738997640E-02
 cg2d: Sum(rhs),rhsMax =   1.58206781009085E-15  8.47884136441700E-02
 cg2d: Sum(rhs),rhsMax =   1.01307850997046E-15  8.55167443968491E-02
 cg2d: Sum(rhs),rhsMax =   1.29063426612674E-15  8.61788311937173E-02
 cg2d: Sum(rhs),rhsMax =   1.17961196366423E-15  8.67974371580248E-02
 cg2d: Sum(rhs),rhsMax =   1.38777878078145E-15  8.73897637159760E-02
 cg2d: Sum(rhs),rhsMax =   1.22124532708767E-15  8.79649114579791E-02
 cg2d: Sum(rhs),rhsMax =   9.71445146547012E-16  8.85227173129090E-02
 cg2d: Sum(rhs),rhsMax =   5.27355936696949E-16  8.90540967509544E-02
 cg2d: Sum(rhs),rhsMax =   8.32667268468867E-16  8.95427852840760E-02
 cg2d: Sum(rhs),rhsMax =   8.46545056276682E-16  8.99681657926206E-02
 cg2d: Sum(rhs),rhsMax =   1.61676227961038E-15  9.03087145636780E-02
 cg2d: Sum(rhs),rhsMax =   1.70696790036118E-15  9.05455184066569E-02
 cg2d: Sum(rhs),rhsMax =   2.00534033822919E-15  9.06653175618181E-02
 cg2d: Sum(rhs),rhsMax =   2.30371277609720E-15  9.06626136916551E-02
 cg2d: Sum(rhs),rhsMax =   2.05391259555654E-15  9.05405369293138E-02
 cg2d: Sum(rhs),rhsMax =   2.24820162486594E-15  9.03103672823301E-02
 cg2d: Sum(rhs),rhsMax =   1.46410661372443E-15  8.99898213243487E-02
 cg2d: Sum(rhs),rhsMax =   1.90993054705046E-15  8.96004090927085E-02
 cg2d: Sum(rhs),rhsMax =   1.61340125287568E-15  8.91643058547347E-02
 cg2d: Sum(rhs),rhsMax =   1.20910226275583E-15  8.87012464724883E-02
 cg2d: Sum(rhs),rhsMax =   1.14144804719274E-15  8.82259286416930E-02
 cg2d: Sum(rhs),rhsMax =   1.09634523681734E-15  8.77463128540819E-02
 cg2d: Sum(rhs),rhsMax =   1.16920362280837E-15  8.72630517010351E-02
 cg2d: Sum(rhs),rhsMax =   9.08995101411847E-16  8.67700968363309E-02
 cg2d: Sum(rhs),rhsMax =   1.18655085756814E-15  8.62563483050238E-02
 cg2d: Sum(rhs),rhsMax =   1.10848830114918E-15  8.57080551774152E-02
 cg2d: Sum(rhs),rhsMax =   1.34614541735800E-15  8.51115699063783E-02
 cg2d: Sum(rhs),rhsMax =   1.09981468376930E-15  8.44560153214942E-02
 cg2d: Sum(rhs),rhsMax =   1.19869392189997E-15  8.37354476740602E-02
 cg2d: Sum(rhs),rhsMax =   1.11022302462516E-15  8.29501872072979E-02
 cg2d: Sum(rhs),rhsMax =   1.24379673227537E-15  8.21071255354872E-02
 cg2d: Sum(rhs),rhsMax =   1.81538811760973E-15  8.12189848447523E-02
 cg2d: Sum(rhs),rhsMax =   2.01227923213310E-15  8.03026707481015E-02
 cg2d: Sum(rhs),rhsMax =   2.09034178855205E-15  7.93770012083932E-02
 cg2d: Sum(rhs),rhsMax =   2.34187669256869E-15  7.84601855375574E-02
 cg2d: Sum(rhs),rhsMax =   2.41820452551167E-15  7.75674562624697E-02
 cg2d: Sum(rhs),rhsMax =   2.73045475118749E-15  7.67092201057289E-02
 cg2d: Sum(rhs),rhsMax =   2.72698530423554E-15  7.58900011336203E-02
 cg2d: Sum(rhs),rhsMax =   2.66800470605233E-15  7.51083167283805E-02
 cg2d: Sum(rhs),rhsMax =   2.94209101525666E-15  7.43574779248175E-02
 cg2d: Sum(rhs),rhsMax =   3.15719672627779E-15  7.36271632865569E-02
 cg2d: Sum(rhs),rhsMax =   3.34454686168328E-15  7.29055008897413E-02
 cg2d: Sum(rhs),rhsMax =   3.32373017997156E-15  7.21813221151659E-02
 --> objf_test(bi,bj)   = -0.849803513526261E+00
 --> objf_tracer(bi,bj) =  0.000000000000000E+00
 --> objf_atl(bi,bj)    =  0.000000000000000E+00
  local fc = -0.849803513526261E+00
 global fc = -0.849803513526261E+00
 ph-check fcpertplus =  -0.849803514
(PID.TID 0000.0001)  MDSREADFIELD: opening file: xx_depth.0000000000.001.001.data
 ph-check fcpertminus =  -0.849803598
(PID.TID 0000.0001)  MDSREADFIELD: opening file: xx_depth.0000000000.001.001.data
(PID.TID 0000.0001)  MDSREADFIELD: opening global file: walls.bigRidge
(PID.TID 0000.0001) // =======================================================
(PID.TID 0000.0001) // Field Bottom depths (ini_depths) at iteration          1
(PID.TID 0000.0001) // CMIN =         -5.000000000000000E+03
(PID.TID 0000.0001) // CMAX =         -2.000000000000000E+03
(PID.TID 0000.0001) // CINT =          1.111111111111111E+02
(PID.TID 0000.0001) // SYMBOLS (CMIN->CMAX): -abcdefghijklmnopqrstuvwxyz+
(PID.TID 0000.0001) //                  0.0: .
(PID.TID 0000.0001) // RANGE I (Lo:Hi:Step):(  -1:   7:   1)
(PID.TID 0000.0001) // RANGE J (Lo:Hi:Step):(   7:  -1:  -1)
(PID.TID 0000.0001) // RANGE K (Lo:Hi:Step):(   1:   1:   1)
(PID.TID 0000.0001) // =======================================================
(PID.TID 0000.0001) K =   1
(PID.TID 0000.0001) //
(PID.TID 0000.0001) // |--J--|*01234567
(PID.TID 0000.0001) //      7 ----+----
(PID.TID 0000.0001) //      6 .........
(PID.TID 0000.0001) //      5 ----+----
(PID.TID 0000.0001) //      4 ----+----
(PID.TID 0000.0001) //      3 ----+----
(PID.TID 0000.0001) //      2 ----+----
(PID.TID 0000.0001) //      1 .........
(PID.TID 0000.0001) //      0 ----+----
(PID.TID 0000.0001) //     -1 ----+----
(PID.TID 0000.0001) // =======================================================
(PID.TID 0000.0001) // END OF FIELD                                          =
(PID.TID 0000.0001) // =======================================================
(PID.TID 0000.0001) 
(PID.TID 0000.0001) // =======================================================
(PID.TID 0000.0001) // Field Model R_low (ini_masks_etc) at iteration          1
(PID.TID 0000.0001) // CMIN =         -5.000000000000000E+03
(PID.TID 0000.0001) // CMAX =         -2.000000000000000E+03
(PID.TID 0000.0001) // CINT =          1.111111111111111E+02
(PID.TID 0000.0001) // SYMBOLS (CMIN->CMAX): -abcdefghijklmnopqrstuvwxyz+
(PID.TID 0000.0001) //                  0.0: .
(PID.TID 0000.0001) // RANGE I (Lo:Hi:Step):(  -1:   7:   1)
(PID.TID 0000.0001) // RANGE J (Lo:Hi:Step):(   7:  -1:  -1)
(PID.TID 0000.0001) // RANGE K (Lo:Hi:Step):(   1:   1:   1)
(PID.TID 0000.0001) // =======================================================
(PID.TID 0000.0001) K =   1
(PID.TID 0000.0001) //
(PID.TID 0000.0001) // |--J--|*01234567
(PID.TID 0000.0001) //      7 ----+----
(PID.TID 0000.0001) //      6 .........
(PID.TID 0000.0001) //      5 ----+----
(PID.TID 0000.0001) //      4 ----+----
(PID.TID 0000.0001) //      3 ----+----
(PID.TID 0000.0001) //      2 ----+----
(PID.TID 0000.0001) //      1 .........
(PID.TID 0000.0001) //      0 ----+----
(PID.TID 0000.0001) //     -1 ----+----
(PID.TID 0000.0001) // =======================================================
(PID.TID 0000.0001) // END OF FIELD                                          =
(PID.TID 0000.0001) // =======================================================
(PID.TID 0000.0001) 
(PID.TID 0000.0001) // =======================================================
(PID.TID 0000.0001) // Field Model Ro_surf (ini_masks_etc) at iteration          1
(PID.TID 0000.0001) // CMIN =          2.273736754432321E-13
(PID.TID 0000.0001) // CMAX =          2.273736754432321E-13
(PID.TID 0000.0001) // CINT =          0.000000000000000E+00
(PID.TID 0000.0001) // SYMBOLS (CMIN->CMAX): -abcdefghijklmnopqrstuvwxyz+
(PID.TID 0000.0001) //                  0.0: .
(PID.TID 0000.0001) // RANGE I (Lo:Hi:Step):(  -1:   7:   1)
(PID.TID 0000.0001) // RANGE J (Lo:Hi:Step):(   7:  -1:  -1)
(PID.TID 0000.0001) // RANGE K (Lo:Hi:Step):(   1:   1:   1)
(PID.TID 0000.0001) // =======================================================
(PID.TID 0000.0001) // =======================================================
(PID.TID 0000.0001) // END OF FIELD                                          =
(PID.TID 0000.0001) // =======================================================
(PID.TID 0000.0001) 
(PID.TID 0000.0001) // =======================================================
(PID.TID 0000.0001) // Field hFacC at iteration          1
(PID.TID 0000.0001) // CMIN =          1.000000000000000E+00
(PID.TID 0000.0001) // CMAX =          1.000000000000000E+00
(PID.TID 0000.0001) // CINT =          0.000000000000000E+00
(PID.TID 0000.0001) // SYMBOLS (CMIN->CMAX): -abcdefghijklmnopqrstuvwxyz+
(PID.TID 0000.0001) //                  0.0: .
(PID.TID 0000.0001) // RANGE I (Lo:Hi:Step):(  -1:   7:   1)
(PID.TID 0000.0001) // RANGE J (Lo:Hi:Step):(   7:  -1:  -1)
(PID.TID 0000.0001) // RANGE K (Lo:Hi:Step):(   1:   1:   1)
(PID.TID 0000.0001) // =======================================================
(PID.TID 0000.0001) // =======================================================
(PID.TID 0000.0001) // END OF FIELD                                          =
(PID.TID 0000.0001) // =======================================================
(PID.TID 0000.0001) 
(PID.TID 0000.0001) // =======================================================
(PID.TID 0000.0001) // Field hFacW at iteration          1
(PID.TID 0000.0001) // CMIN =          1.000000000000000E+00
(PID.TID 0000.0001) // CMAX =          1.000000000000000E+00
(PID.TID 0000.0001) // CINT =          0.000000000000000E+00
(PID.TID 0000.0001) // SYMBOLS (CMIN->CMAX): -abcdefghijklmnopqrstuvwxyz+
(PID.TID 0000.0001) //                  0.0: .
(PID.TID 0000.0001) // RANGE I (Lo:Hi:Step):(  -1:   7:   1)
(PID.TID 0000.0001) // RANGE J (Lo:Hi:Step):(   7:  -1:  -1)
(PID.TID 0000.0001) // RANGE K (Lo:Hi:Step):(   1:   1:   1)
(PID.TID 0000.0001) // =======================================================
(PID.TID 0000.0001) // =======================================================
(PID.TID 0000.0001) // END OF FIELD                                          =
(PID.TID 0000.0001) // =======================================================
(PID.TID 0000.0001) 
(PID.TID 0000.0001) // =======================================================
(PID.TID 0000.0001) // Field hFacS at iteration          1
(PID.TID 0000.0001) // CMIN =          1.000000000000000E+00
(PID.TID 0000.0001) // CMAX =          1.000000000000000E+00
(PID.TID 0000.0001) // CINT =          0.000000000000000E+00
(PID.TID 0000.0001) // SYMBOLS (CMIN->CMAX): -abcdefghijklmnopqrstuvwxyz+
(PID.TID 0000.0001) //                  0.0: .
(PID.TID 0000.0001) // RANGE I (Lo:Hi:Step):(  -1:   7:   1)
(PID.TID 0000.0001) // RANGE J (Lo:Hi:Step):(   7:  -1:  -1)
(PID.TID 0000.0001) // RANGE K (Lo:Hi:Step):(   1:   1:   1)
(PID.TID 0000.0001) // =======================================================
(PID.TID 0000.0001) // =======================================================
(PID.TID 0000.0001) // END OF FIELD                                          =
(PID.TID 0000.0001) // =======================================================
(PID.TID 0000.0001) 
(PID.TID 0000.0001) %MON surfExpanfCori_max           =  -1.0735540000000E-04
(PID.TID 0000.0001) %MON surfExpanfCori_min           =  -1.1783060000000E-04
(PID.TID 0000.0001) %MON surfExpanfCori_mean          =  -1.1259300000000E-04
(PID.TID 0000.0001) %MON surfExpanfCori_sd            =   3.7035424771427E-06
(PID.TID 0000.0001) %MON surfExpanfCoriG_max          =  -1.0866480000000E-04
(PID.TID 0000.0001) %MON surfExpanfCoriG_min          =  -1.1914000000000E-04
(PID.TID 0000.0001) %MON surfExpanfCoriG_mean         =  -1.1390240000000E-04
(PID.TID 0000.0001) %MON surfExpanfCoriG_sd           =   3.7035424771427E-06
(PID.TID 0000.0001) %MON surfExpanfCoriCos_max        =   0.0000000000000E+00
(PID.TID 0000.0001) %MON surfExpanfCoriCos_min        =   0.0000000000000E+00
(PID.TID 0000.0001) %MON surfExpanfCoriCos_mean       =   0.0000000000000E+00
(PID.TID 0000.0001) %MON surfExpanfCoriCos_sd         =   0.0000000000000E+00
(PID.TID 0000.0001) INI_CG2D: CG2D normalisation factor =  1.9999999999999996E-04
(PID.TID 0000.0001) 
                     ctrl_depth_ini: ctrl update R_low,
                                     adding the control vector.
(PID.TID 0000.0001)  MDSREADFIELD: opening file: xx_depth.0000000000.001.001.data
(PID.TID 0000.0001) // =======================================================
(PID.TID 0000.0001) // Field Model Ro_surf (update_masks_etc) at iteration          1
(PID.TID 0000.0001) // CMIN =          2.273736754432321E-13
(PID.TID 0000.0001) // CMAX =          2.273736754432321E-13
(PID.TID 0000.0001) // CINT =          0.000000000000000E+00
(PID.TID 0000.0001) // SYMBOLS (CMIN->CMAX): -abcdefghijklmnopqrstuvwxyz+
(PID.TID 0000.0001) //                  0.0: .
(PID.TID 0000.0001) // RANGE I (Lo:Hi:Step):(  -1:   7:   1)
(PID.TID 0000.0001) // RANGE J (Lo:Hi:Step):(   7:  -1:  -1)
(PID.TID 0000.0001) // RANGE K (Lo:Hi:Step):(   1:   1:   1)
(PID.TID 0000.0001) // =======================================================
(PID.TID 0000.0001) // =======================================================
(PID.TID 0000.0001) // END OF FIELD                                          =
(PID.TID 0000.0001) // =======================================================
(PID.TID 0000.0001) 
(PID.TID 0000.0001) // =======================================================
(PID.TID 0000.0001) // Field hFacC at iteration          1
(PID.TID 0000.0001) // CMIN =          1.000000000000000E+00
(PID.TID 0000.0001) // CMAX =          1.000000000000000E+00
(PID.TID 0000.0001) // CINT =          0.000000000000000E+00
(PID.TID 0000.0001) // SYMBOLS (CMIN->CMAX): -abcdefghijklmnopqrstuvwxyz+
(PID.TID 0000.0001) //                  0.0: .
(PID.TID 0000.0001) // RANGE I (Lo:Hi:Step):(  -1:   7:   1)
(PID.TID 0000.0001) // RANGE J (Lo:Hi:Step):(   7:  -1:  -1)
(PID.TID 0000.0001) // RANGE K (Lo:Hi:Step):(   1:   1:   1)
(PID.TID 0000.0001) // =======================================================
(PID.TID 0000.0001) // =======================================================
(PID.TID 0000.0001) // END OF FIELD                                          =
(PID.TID 0000.0001) // =======================================================
(PID.TID 0000.0001) 
(PID.TID 0000.0001) // =======================================================
(PID.TID 0000.0001) // Field hFacW at iteration          1
(PID.TID 0000.0001) // CMIN =          1.000000000000000E+00
(PID.TID 0000.0001) // CMAX =          1.000000000000000E+00
(PID.TID 0000.0001) // CINT =          0.000000000000000E+00
(PID.TID 0000.0001) // SYMBOLS (CMIN->CMAX): -abcdefghijklmnopqrstuvwxyz+
(PID.TID 0000.0001) //                  0.0: .
(PID.TID 0000.0001) // RANGE I (Lo:Hi:Step):(  -1:   7:   1)
(PID.TID 0000.0001) // RANGE J (Lo:Hi:Step):(   7:  -1:  -1)
(PID.TID 0000.0001) // RANGE K (Lo:Hi:Step):(   1:   1:   1)
(PID.TID 0000.0001) // =======================================================
(PID.TID 0000.0001) // =======================================================
(PID.TID 0000.0001) // END OF FIELD                                          =
(PID.TID 0000.0001) // =======================================================
(PID.TID 0000.0001) 
(PID.TID 0000.0001) // =======================================================
(PID.TID 0000.0001) // Field hFacS at iteration          1
(PID.TID 0000.0001) // CMIN =          1.000000000000000E+00
(PID.TID 0000.0001) // CMAX =          1.000000000000000E+00
(PID.TID 0000.0001) // CINT =          0.000000000000000E+00
(PID.TID 0000.0001) // SYMBOLS (CMIN->CMAX): -abcdefghijklmnopqrstuvwxyz+
(PID.TID 0000.0001) //                  0.0: .
(PID.TID 0000.0001) // RANGE I (Lo:Hi:Step):(  -1:   7:   1)
(PID.TID 0000.0001) // RANGE J (Lo:Hi:Step):(   7:  -1:  -1)
(PID.TID 0000.0001) // RANGE K (Lo:Hi:Step):(   1:   1:   1)
(PID.TID 0000.0001) // =======================================================
(PID.TID 0000.0001) // =======================================================
(PID.TID 0000.0001) // END OF FIELD                                          =
(PID.TID 0000.0001) // =======================================================
(PID.TID 0000.0001) 
(PID.TID 0000.0001) // =======================================================
(PID.TID 0000.0001) // Field Initial Temperature at iteration          1
(PID.TID 0000.0001) // CMIN =          4.000000000000000E+00
(PID.TID 0000.0001) // CMAX =          4.000000000000000E+00
(PID.TID 0000.0001) // CINT =          0.000000000000000E+00
(PID.TID 0000.0001) // SYMBOLS (CMIN->CMAX): -abcdefghijklmnopqrstuvwxyz+
(PID.TID 0000.0001) //                  0.0: .
(PID.TID 0000.0001) // RANGE I (Lo:Hi:Step):(   1:   5:   1)
(PID.TID 0000.0001) // RANGE J (Lo:Hi:Step):(   5:   1:  -1)
(PID.TID 0000.0001) // RANGE K (Lo:Hi:Step):(   1:   1:   1)
(PID.TID 0000.0001) // =======================================================
(PID.TID 0000.0001) // =======================================================
(PID.TID 0000.0001) // END OF FIELD                                          =
(PID.TID 0000.0001) // =======================================================
(PID.TID 0000.0001) 
(PID.TID 0000.0001) // =======================================================
(PID.TID 0000.0001) // Field Initial Salinity at iteration          1
(PID.TID 0000.0001) // CMIN =          3.500000000000000E+01
(PID.TID 0000.0001) // CMAX =          3.500000000000000E+01
(PID.TID 0000.0001) // CINT =          0.000000000000000E+00
(PID.TID 0000.0001) // SYMBOLS (CMIN->CMAX): -abcdefghijklmnopqrstuvwxyz+
(PID.TID 0000.0001) //                  0.0: .
(PID.TID 0000.0001) // RANGE I (Lo:Hi:Step):(   1:   5:   1)
(PID.TID 0000.0001) // RANGE J (Lo:Hi:Step):(   5:   1:  -1)
(PID.TID 0000.0001) // RANGE K (Lo:Hi:Step):(   1:   1:   1)
(PID.TID 0000.0001) // =======================================================
(PID.TID 0000.0001) // =======================================================
(PID.TID 0000.0001) // END OF FIELD                                          =
(PID.TID 0000.0001) // =======================================================
(PID.TID 0000.0001) 
(PID.TID 0000.0001) Start initial hydrostatic pressure computation
(PID.TID 0000.0001) Pressure is predetermined for buoyancyRelation OCEANIC
(PID.TID 0000.0001) 
(PID.TID 0000.0001)  MDSREADFIELD: opening global file: windx.sin_y
(PID.TID 0000.0001) // =======================================================
(PID.TID 0000.0001) // Model current state
(PID.TID 0000.0001) // =======================================================
(PID.TID 0000.0001) 
 cg2d: Sum(rhs),rhsMax =   0.00000000000000E+00  0.00000000000000E+00
 cg2d: Sum(rhs),rhsMax =   4.68375338513738E-16  2.62483626325265E-03
 cg2d: Sum(rhs),rhsMax =   5.93275428784068E-16  5.13362633360820E-03
 cg2d: Sum(rhs),rhsMax =   6.41414005242424E-16  7.16168458781613E-03
 cg2d: Sum(rhs),rhsMax =   2.79290479632266E-16  9.29466755220083E-03
 cg2d: Sum(rhs),rhsMax =   6.14092110495790E-16  1.15304356692356E-02
 cg2d: Sum(rhs),rhsMax =   7.55472073787899E-16  1.37809802228254E-02
 cg2d: Sum(rhs),rhsMax =   7.80625564189563E-16  1.60011247339710E-02
 cg2d: Sum(rhs),rhsMax =   8.67361737988404E-16  1.82027337977653E-02
 cg2d: Sum(rhs),rhsMax =   1.94289029309402E-16  2.04493560967580E-02
 cg2d: Sum(rhs),rhsMax =   4.16333634234434E-17  2.25706027883564E-02
 cg2d: Sum(rhs),rhsMax =  -2.77555756156289E-17  2.45301657377179E-02
 cg2d: Sum(rhs),rhsMax =   1.24900090270330E-16  2.63097944685830E-02
 cg2d: Sum(rhs),rhsMax =   7.35522753814166E-16  2.79110497649591E-02
 cg2d: Sum(rhs),rhsMax =   7.77156117237610E-16  2.93538602962007E-02
 cg2d: Sum(rhs),rhsMax =   9.78384040450919E-16  3.06720439854505E-02
 cg2d: Sum(rhs),rhsMax =   1.01307850997046E-15  3.19067817538083E-02
 cg2d: Sum(rhs),rhsMax =   1.17961196366423E-15  3.30992668759163E-02
 cg2d: Sum(rhs),rhsMax =   1.15185638804860E-15  3.42837434157369E-02
 cg2d: Sum(rhs),rhsMax =   7.91033905045424E-16  3.54819652291326E-02
 cg2d: Sum(rhs),rhsMax =   4.64905891561784E-16  3.66998060153658E-02
 cg2d: Sum(rhs),rhsMax =  -6.93889390390723E-18  3.79264047375891E-02
 cg2d: Sum(rhs),rhsMax =   3.74700270810990E-16  3.91358860425434E-02
 cg2d: Sum(rhs),rhsMax =   1.38777878078145E-16  4.02913641453787E-02
 cg2d: Sum(rhs),rhsMax =  -6.66133814775094E-16  4.13506297008385E-02
 cg2d: Sum(rhs),rhsMax =  -6.10622663543836E-16  4.22726609162862E-02
 cg2d: Sum(rhs),rhsMax =  -2.77555756156289E-16  4.30239437879214E-02
 cg2d: Sum(rhs),rhsMax =  -5.13478148889135E-16  4.35835865011195E-02
 cg2d: Sum(rhs),rhsMax =   1.38777878078145E-16  4.39463981429658E-02
 cg2d: Sum(rhs),rhsMax =   8.32667268468867E-17  4.41234517698690E-02
 cg2d: Sum(rhs),rhsMax =  -2.35922392732846E-16  4.41400965435099E-02
 cg2d: Sum(rhs),rhsMax =   1.11022302462516E-16  4.40318244623231E-02
 cg2d: Sum(rhs),rhsMax =   2.91433543964104E-16  4.38387400849722E-02
 cg2d: Sum(rhs),rhsMax =  -1.24900090270330E-16  4.54379564915020E-02
 cg2d: Sum(rhs),rhsMax =  -2.49800180540660E-16  4.77259346701159E-02
 cg2d: Sum(rhs),rhsMax =   1.38777878078145E-17  4.99949948681714E-02
 cg2d: Sum(rhs),rhsMax =  -1.38777878078145E-17  5.22073352765238E-02
 cg2d: Sum(rhs),rhsMax =   2.22044604925031E-16  5.43317162218064E-02
 cg2d: Sum(rhs),rhsMax =   3.46944695195361E-16  5.63476442294111E-02
 cg2d: Sum(rhs),rhsMax =   7.21644966006352E-16  5.82478256346116E-02
 cg2d: Sum(rhs),rhsMax =   1.24900090270330E-15  6.00385237216417E-02
 cg2d: Sum(rhs),rhsMax =   1.33226762955019E-15  6.17377939914177E-02
 cg2d: Sum(rhs),rhsMax =   1.33226762955019E-15  6.33719194704244E-02
 cg2d: Sum(rhs),rhsMax =   1.16573417585641E-15  6.49706574570025E-02
 cg2d: Sum(rhs),rhsMax =   1.08246744900953E-15  6.65620869087042E-02
 cg2d: Sum(rhs),rhsMax =   1.24900090270330E-15  6.81678827358461E-02
 cg2d: Sum(rhs),rhsMax =   9.99200722162641E-16  6.97997412515523E-02
 cg2d: Sum(rhs),rhsMax =   1.02695629777827E-15  7.14574684882486E-02
 cg2d: Sum(rhs),rhsMax =   1.24900090270330E-15  7.31289646427932E-02
 cg2d: Sum(rhs),rhsMax =   1.60982338570648E-15  7.47920419081468E-02
 cg2d: Sum(rhs),rhsMax =   1.44328993201270E-15  7.64177424350808E-02
 cg2d: Sum(rhs),rhsMax =   1.33226762955019E-15  7.79746119568817E-02
 cg2d: Sum(rhs),rhsMax =   1.24900090270330E-15  7.94332570155795E-02
 cg2d: Sum(rhs),rhsMax =   1.58206781009085E-15  8.07704849404708E-02
 cg2d: Sum(rhs),rhsMax =   1.91513471747840E-15  8.19724006131763E-02
 cg2d: Sum(rhs),rhsMax =   1.77635683940025E-15  8.30360043621880E-02
 cg2d: Sum(rhs),rhsMax =   2.12330153459561E-15  8.39690774370368E-02
 cg2d: Sum(rhs),rhsMax =   2.24820162486594E-15  8.47884173659105E-02
 cg2d: Sum(rhs),rhsMax =   2.20656826144250E-15  8.55167483056619E-02
 cg2d: Sum(rhs),rhsMax =   1.81799020282369E-15  8.61788352886457E-02
 cg2d: Sum(rhs),rhsMax =   1.94289029309402E-15  8.67974414343344E-02
 cg2d: Sum(rhs),rhsMax =   1.59594559789866E-15  8.73897681654572E-02
 cg2d: Sum(rhs),rhsMax =   1.55431223447522E-15  8.79649160697051E-02
 cg2d: Sum(rhs),rhsMax =   1.76247905159244E-15  8.85227220743185E-02
 cg2d: Sum(rhs),rhsMax =   1.59594559789866E-15  8.90541016490823E-02
 cg2d: Sum(rhs),rhsMax =   1.66533453693773E-15  8.95427903067366E-02
 cg2d: Sum(rhs),rhsMax =   1.65145674912992E-15  8.99681709293637E-02
 cg2d: Sum(rhs),rhsMax =   1.50573997714787E-15  9.03087198063751E-02
 cg2d: Sum(rhs),rhsMax =   1.85268467234323E-15  9.05455237496453E-02
 cg2d: Sum(rhs),rhsMax =   1.79023462720806E-15  9.06653230015896E-02
 cg2d: Sum(rhs),rhsMax =   1.50573997714787E-15  9.06626192261600E-02
 cg2d: Sum(rhs),rhsMax =   1.71390679426509E-15  9.05405425569997E-02
 cg2d: Sum(rhs),rhsMax =   2.02962646689286E-15  9.03103730010757E-02
 cg2d: Sum(rhs),rhsMax =   1.90472637662253E-15  8.99898271304675E-02
 cg2d: Sum(rhs),rhsMax =   1.80584713849186E-15  8.96004149801745E-02
 cg2d: Sum(rhs),rhsMax =   1.78405467482490E-15  8.91643118147515E-02
 cg2d: Sum(rhs),rhsMax =   1.84054160801139E-15  8.87012524934594E-02
 cg2d: Sum(rhs),rhsMax =   1.76941794549634E-15  8.82259347095905E-02
 cg2d: Sum(rhs),rhsMax =   1.71043734731313E-15  8.77463189531498E-02
 cg2d: Sum(rhs),rhsMax =   1.60288449180257E-15  8.72630578147088E-02
 cg2d: Sum(rhs),rhsMax =   1.64104840827406E-15  8.67701029482308E-02
 cg2d: Sum(rhs),rhsMax =   1.84227633148737E-15  8.62563543998694E-02
 cg2d: Sum(rhs),rhsMax =   2.08340289464815E-15  8.57080612417248E-02
 cg2d: Sum(rhs),rhsMax =   1.95676808090184E-15  8.51115759288578E-02
 cg2d: Sum(rhs),rhsMax =   2.05044314860459E-15  8.44560212930689E-02
 cg2d: Sum(rhs),rhsMax =   1.90299165314656E-15  8.37354535875620E-02
 cg2d: Sum(rhs),rhsMax =   2.00013616780126E-15  8.29501930568727E-02
 cg2d: Sum(rhs),rhsMax =   2.12850570502354E-15  8.21071313158280E-02
 cg2d: Sum(rhs),rhsMax =   2.70963806947577E-15  8.12189905502922E-02
 cg2d: Sum(rhs),rhsMax =   3.11903280980630E-15  8.03026763722958E-02
 cg2d: Sum(rhs),rhsMax =   3.26821902874030E-15  7.93770067432082E-02
 cg2d: Sum(rhs),rhsMax =   3.47638584585752E-15  7.84601909732466E-02
 cg2d: Sum(rhs),rhsMax =   3.72965547335014E-15  7.75674615876664E-02
 cg2d: Sum(rhs),rhsMax =   4.30905311432639E-15  7.67092253078395E-02
 cg2d: Sum(rhs),rhsMax =   4.27782809175881E-15  7.58900061994535E-02
 cg2d: Sum(rhs),rhsMax =   4.33333924299006E-15  7.51083216449101E-02
 cg2d: Sum(rhs),rhsMax =   4.26048085699904E-15  7.43574826799631E-02
 cg2d: Sum(rhs),rhsMax =   4.26048085699904E-15  7.36271678698612E-02
 cg2d: Sum(rhs),rhsMax =   5.06539254985228E-15  7.29055052928485E-02
 cg2d: Sum(rhs),rhsMax =   5.04457586814056E-15  7.21813263320326E-02
 --> objf_test(bi,bj)   = -0.849803682361561E+00
 --> objf_tracer(bi,bj) =  0.000000000000000E+00
 --> objf_atl(bi,bj)    =  0.000000000000000E+00
  local fc = -0.849803682361561E+00
 global fc = -0.849803682361561E+00
(PID.TID 0000.0001)  MDSREADFIELD: opening file: xx_depth.0000000000.001.001.data
 grad-res -------------------------------
 grad-res     0   13    3    4    1   -.849803598E+00 -.849803514E+00 -.849803682E+00
 grad-res     0   13   13   13   20   0.844153768E-03 0.844176499E-03 -.269282573E-04
(PID.TID 0000.0001)       precision_grdchk_result ADM    -8.49803597943908E-01     8.44153767669622E-04
 ph-grd  ierr ---------------------------
 ph-grd  ierr =  0, icomp =  13, ichknum =  13
(PID.TID 0000.0001)  MDSREADFIELD: opening file: adxx_depth.0000000000.001.001.data
(PID.TID 0000.0001)  MDSREADFIELD: opening file: xx_depth.0000000000.001.001.data
(PID.TID 0000.0001)  MDSREADFIELD: opening global file: walls.bigRidge
(PID.TID 0000.0001) // =======================================================
(PID.TID 0000.0001) // Field Bottom depths (ini_depths) at iteration          1
(PID.TID 0000.0001) // CMIN =         -5.000000000000000E+03
(PID.TID 0000.0001) // CMAX =         -2.000000000000000E+03
(PID.TID 0000.0001) // CINT =          1.111111111111111E+02
(PID.TID 0000.0001) // SYMBOLS (CMIN->CMAX): -abcdefghijklmnopqrstuvwxyz+
(PID.TID 0000.0001) //                  0.0: .
(PID.TID 0000.0001) // RANGE I (Lo:Hi:Step):(  -1:   7:   1)
(PID.TID 0000.0001) // RANGE J (Lo:Hi:Step):(   7:  -1:  -1)
(PID.TID 0000.0001) // RANGE K (Lo:Hi:Step):(   1:   1:   1)
(PID.TID 0000.0001) // =======================================================
(PID.TID 0000.0001) K =   1
(PID.TID 0000.0001) //
(PID.TID 0000.0001) // |--J--|*01234567
(PID.TID 0000.0001) //      7 ----+----
(PID.TID 0000.0001) //      6 .........
(PID.TID 0000.0001) //      5 ----+----
(PID.TID 0000.0001) //      4 ----+----
(PID.TID 0000.0001) //      3 ----+----
(PID.TID 0000.0001) //      2 ----+----
(PID.TID 0000.0001) //      1 .........
(PID.TID 0000.0001) //      0 ----+----
(PID.TID 0000.0001) //     -1 ----+----
(PID.TID 0000.0001) // =======================================================
(PID.TID 0000.0001) // END OF FIELD                                          =
(PID.TID 0000.0001) // =======================================================
(PID.TID 0000.0001) 
(PID.TID 0000.0001) // =======================================================
(PID.TID 0000.0001) // Field Model R_low (ini_masks_etc) at iteration          1
(PID.TID 0000.0001) // CMIN =         -5.000000000000000E+03
(PID.TID 0000.0001) // CMAX =         -2.000000000000000E+03
(PID.TID 0000.0001) // CINT =          1.111111111111111E+02
(PID.TID 0000.0001) // SYMBOLS (CMIN->CMAX): -abcdefghijklmnopqrstuvwxyz+
(PID.TID 0000.0001) //                  0.0: .
(PID.TID 0000.0001) // RANGE I (Lo:Hi:Step):(  -1:   7:   1)
(PID.TID 0000.0001) // RANGE J (Lo:Hi:Step):(   7:  -1:  -1)
(PID.TID 0000.0001) // RANGE K (Lo:Hi:Step):(   1:   1:   1)
(PID.TID 0000.0001) // =======================================================
(PID.TID 0000.0001) K =   1
(PID.TID 0000.0001) //
(PID.TID 0000.0001) // |--J--|*01234567
(PID.TID 0000.0001) //      7 ----+----
(PID.TID 0000.0001) //      6 .........
(PID.TID 0000.0001) //      5 ----+----
(PID.TID 0000.0001) //      4 ----+----
(PID.TID 0000.0001) //      3 ----+----
(PID.TID 0000.0001) //      2 ----+----
(PID.TID 0000.0001) //      1 .........
(PID.TID 0000.0001) //      0 ----+----
(PID.TID 0000.0001) //     -1 ----+----
(PID.TID 0000.0001) // =======================================================
(PID.TID 0000.0001) // END OF FIELD                                          =
(PID.TID 0000.0001) // =======================================================
(PID.TID 0000.0001) 
(PID.TID 0000.0001) // =======================================================
(PID.TID 0000.0001) // Field Model Ro_surf (ini_masks_etc) at iteration          1
(PID.TID 0000.0001) // CMIN =          2.273736754432321E-13
(PID.TID 0000.0001) // CMAX =          2.273736754432321E-13
(PID.TID 0000.0001) // CINT =          0.000000000000000E+00
(PID.TID 0000.0001) // SYMBOLS (CMIN->CMAX): -abcdefghijklmnopqrstuvwxyz+
(PID.TID 0000.0001) //                  0.0: .
(PID.TID 0000.0001) // RANGE I (Lo:Hi:Step):(  -1:   7:   1)
(PID.TID 0000.0001) // RANGE J (Lo:Hi:Step):(   7:  -1:  -1)
(PID.TID 0000.0001) // RANGE K (Lo:Hi:Step):(   1:   1:   1)
(PID.TID 0000.0001) // =======================================================
(PID.TID 0000.0001) // =======================================================
(PID.TID 0000.0001) // END OF FIELD                                          =
(PID.TID 0000.0001) // =======================================================
(PID.TID 0000.0001) 
(PID.TID 0000.0001) // =======================================================
(PID.TID 0000.0001) // Field hFacC at iteration          1
(PID.TID 0000.0001) // CMIN =          1.000000000000000E+00
(PID.TID 0000.0001) // CMAX =          1.000000000000000E+00
(PID.TID 0000.0001) // CINT =          0.000000000000000E+00
(PID.TID 0000.0001) // SYMBOLS (CMIN->CMAX): -abcdefghijklmnopqrstuvwxyz+
(PID.TID 0000.0001) //                  0.0: .
(PID.TID 0000.0001) // RANGE I (Lo:Hi:Step):(  -1:   7:   1)
(PID.TID 0000.0001) // RANGE J (Lo:Hi:Step):(   7:  -1:  -1)
(PID.TID 0000.0001) // RANGE K (Lo:Hi:Step):(   1:   1:   1)
(PID.TID 0000.0001) // =======================================================
(PID.TID 0000.0001) // =======================================================
(PID.TID 0000.0001) // END OF FIELD                                          =
(PID.TID 0000.0001) // =======================================================
(PID.TID 0000.0001) 
(PID.TID 0000.0001) // =======================================================
(PID.TID 0000.0001) // Field hFacW at iteration          1
(PID.TID 0000.0001) // CMIN =          1.000000000000000E+00
(PID.TID 0000.0001) // CMAX =          1.000000000000000E+00
(PID.TID 0000.0001) // CINT =          0.000000000000000E+00
(PID.TID 0000.0001) // SYMBOLS (CMIN->CMAX): -abcdefghijklmnopqrstuvwxyz+
(PID.TID 0000.0001) //                  0.0: .
(PID.TID 0000.0001) // RANGE I (Lo:Hi:Step):(  -1:   7:   1)
(PID.TID 0000.0001) // RANGE J (Lo:Hi:Step):(   7:  -1:  -1)
(PID.TID 0000.0001) // RANGE K (Lo:Hi:Step):(   1:   1:   1)
(PID.TID 0000.0001) // =======================================================
(PID.TID 0000.0001) // =======================================================
(PID.TID 0000.0001) // END OF FIELD                                          =
(PID.TID 0000.0001) // =======================================================
(PID.TID 0000.0001) 
(PID.TID 0000.0001) // =======================================================
(PID.TID 0000.0001) // Field hFacS at iteration          1
(PID.TID 0000.0001) // CMIN =          1.000000000000000E+00
(PID.TID 0000.0001) // CMAX =          1.000000000000000E+00
(PID.TID 0000.0001) // CINT =          0.000000000000000E+00
(PID.TID 0000.0001) // SYMBOLS (CMIN->CMAX): -abcdefghijklmnopqrstuvwxyz+
(PID.TID 0000.0001) //                  0.0: .
(PID.TID 0000.0001) // RANGE I (Lo:Hi:Step):(  -1:   7:   1)
(PID.TID 0000.0001) // RANGE J (Lo:Hi:Step):(   7:  -1:  -1)
(PID.TID 0000.0001) // RANGE K (Lo:Hi:Step):(   1:   1:   1)
(PID.TID 0000.0001) // =======================================================
(PID.TID 0000.0001) // =======================================================
(PID.TID 0000.0001) // END OF FIELD                                          =
(PID.TID 0000.0001) // =======================================================
(PID.TID 0000.0001) 
(PID.TID 0000.0001) %MON surfExpanfCori_max           =  -1.0735540000000E-04
(PID.TID 0000.0001) %MON surfExpanfCori_min           =  -1.1783060000000E-04
(PID.TID 0000.0001) %MON surfExpanfCori_mean          =  -1.1259300000000E-04
(PID.TID 0000.0001) %MON surfExpanfCori_sd            =   3.7035424771427E-06
(PID.TID 0000.0001) %MON surfExpanfCoriG_max          =  -1.0866480000000E-04
(PID.TID 0000.0001) %MON surfExpanfCoriG_min          =  -1.1914000000000E-04
(PID.TID 0000.0001) %MON surfExpanfCoriG_mean         =  -1.1390240000000E-04
(PID.TID 0000.0001) %MON surfExpanfCoriG_sd           =   3.7035424771427E-06
(PID.TID 0000.0001) %MON surfExpanfCoriCos_max        =   0.0000000000000E+00
(PID.TID 0000.0001) %MON surfExpanfCoriCos_min        =   0.0000000000000E+00
(PID.TID 0000.0001) %MON surfExpanfCoriCos_mean       =   0.0000000000000E+00
(PID.TID 0000.0001) %MON surfExpanfCoriCos_sd         =   0.0000000000000E+00
(PID.TID 0000.0001) INI_CG2D: CG2D normalisation factor =  1.9999999999999996E-04
(PID.TID 0000.0001) 
                     ctrl_depth_ini: ctrl update R_low,
                                     adding the control vector.
(PID.TID 0000.0001)  MDSREADFIELD: opening file: xx_depth.0000000000.001.001.data
(PID.TID 0000.0001) // =======================================================
(PID.TID 0000.0001) // Field Model Ro_surf (update_masks_etc) at iteration          1
(PID.TID 0000.0001) // CMIN =          2.273736754432321E-13
(PID.TID 0000.0001) // CMAX =          2.273736754432321E-13
(PID.TID 0000.0001) // CINT =          0.000000000000000E+00
(PID.TID 0000.0001) // SYMBOLS (CMIN->CMAX): -abcdefghijklmnopqrstuvwxyz+
(PID.TID 0000.0001) //                  0.0: .
(PID.TID 0000.0001) // RANGE I (Lo:Hi:Step):(  -1:   7:   1)
(PID.TID 0000.0001) // RANGE J (Lo:Hi:Step):(   7:  -1:  -1)
(PID.TID 0000.0001) // RANGE K (Lo:Hi:Step):(   1:   1:   1)
(PID.TID 0000.0001) // =======================================================
(PID.TID 0000.0001) // =======================================================
(PID.TID 0000.0001) // END OF FIELD                                          =
(PID.TID 0000.0001) // =======================================================
(PID.TID 0000.0001) 
(PID.TID 0000.0001) // =======================================================
(PID.TID 0000.0001) // Field hFacC at iteration          1
(PID.TID 0000.0001) // CMIN =          1.000000000000000E+00
(PID.TID 0000.0001) // CMAX =          1.000000000000000E+00
(PID.TID 0000.0001) // CINT =          0.000000000000000E+00
(PID.TID 0000.0001) // SYMBOLS (CMIN->CMAX): -abcdefghijklmnopqrstuvwxyz+
(PID.TID 0000.0001) //                  0.0: .
(PID.TID 0000.0001) // RANGE I (Lo:Hi:Step):(  -1:   7:   1)
(PID.TID 0000.0001) // RANGE J (Lo:Hi:Step):(   7:  -1:  -1)
(PID.TID 0000.0001) // RANGE K (Lo:Hi:Step):(   1:   1:   1)
(PID.TID 0000.0001) // =======================================================
(PID.TID 0000.0001) // =======================================================
(PID.TID 0000.0001) // END OF FIELD                                          =
(PID.TID 0000.0001) // =======================================================
(PID.TID 0000.0001) 
(PID.TID 0000.0001) // =======================================================
(PID.TID 0000.0001) // Field hFacW at iteration          1
(PID.TID 0000.0001) // CMIN =          1.000000000000000E+00
(PID.TID 0000.0001) // CMAX =          1.000000000000000E+00
(PID.TID 0000.0001) // CINT =          0.000000000000000E+00
(PID.TID 0000.0001) // SYMBOLS (CMIN->CMAX): -abcdefghijklmnopqrstuvwxyz+
(PID.TID 0000.0001) //                  0.0: .
(PID.TID 0000.0001) // RANGE I (Lo:Hi:Step):(  -1:   7:   1)
(PID.TID 0000.0001) // RANGE J (Lo:Hi:Step):(   7:  -1:  -1)
(PID.TID 0000.0001) // RANGE K (Lo:Hi:Step):(   1:   1:   1)
(PID.TID 0000.0001) // =======================================================
(PID.TID 0000.0001) // =======================================================
(PID.TID 0000.0001) // END OF FIELD                                          =
(PID.TID 0000.0001) // =======================================================
(PID.TID 0000.0001) 
(PID.TID 0000.0001) // =======================================================
(PID.TID 0000.0001) // Field hFacS at iteration          1
(PID.TID 0000.0001) // CMIN =          1.000000000000000E+00
(PID.TID 0000.0001) // CMAX =          1.000000000000000E+00
(PID.TID 0000.0001) // CINT =          0.000000000000000E+00
(PID.TID 0000.0001) // SYMBOLS (CMIN->CMAX): -abcdefghijklmnopqrstuvwxyz+
(PID.TID 0000.0001) //                  0.0: .
(PID.TID 0000.0001) // RANGE I (Lo:Hi:Step):(  -1:   7:   1)
(PID.TID 0000.0001) // RANGE J (Lo:Hi:Step):(   7:  -1:  -1)
(PID.TID 0000.0001) // RANGE K (Lo:Hi:Step):(   1:   1:   1)
(PID.TID 0000.0001) // =======================================================
(PID.TID 0000.0001) // =======================================================
(PID.TID 0000.0001) // END OF FIELD                                          =
(PID.TID 0000.0001) // =======================================================
(PID.TID 0000.0001) 
(PID.TID 0000.0001) // =======================================================
(PID.TID 0000.0001) // Field Initial Temperature at iteration          1
(PID.TID 0000.0001) // CMIN =          4.000000000000000E+00
(PID.TID 0000.0001) // CMAX =          4.000000000000000E+00
(PID.TID 0000.0001) // CINT =          0.000000000000000E+00
(PID.TID 0000.0001) // SYMBOLS (CMIN->CMAX): -abcdefghijklmnopqrstuvwxyz+
(PID.TID 0000.0001) //                  0.0: .
(PID.TID 0000.0001) // RANGE I (Lo:Hi:Step):(   1:   5:   1)
(PID.TID 0000.0001) // RANGE J (Lo:Hi:Step):(   5:   1:  -1)
(PID.TID 0000.0001) // RANGE K (Lo:Hi:Step):(   1:   1:   1)
(PID.TID 0000.0001) // =======================================================
(PID.TID 0000.0001) // =======================================================
(PID.TID 0000.0001) // END OF FIELD                                          =
(PID.TID 0000.0001) // =======================================================
(PID.TID 0000.0001) 
(PID.TID 0000.0001) // =======================================================
(PID.TID 0000.0001) // Field Initial Salinity at iteration          1
(PID.TID 0000.0001) // CMIN =          3.500000000000000E+01
(PID.TID 0000.0001) // CMAX =          3.500000000000000E+01
(PID.TID 0000.0001) // CINT =          0.000000000000000E+00
(PID.TID 0000.0001) // SYMBOLS (CMIN->CMAX): -abcdefghijklmnopqrstuvwxyz+
(PID.TID 0000.0001) //                  0.0: .
(PID.TID 0000.0001) // RANGE I (Lo:Hi:Step):(   1:   5:   1)
(PID.TID 0000.0001) // RANGE J (Lo:Hi:Step):(   5:   1:  -1)
(PID.TID 0000.0001) // RANGE K (Lo:Hi:Step):(   1:   1:   1)
(PID.TID 0000.0001) // =======================================================
(PID.TID 0000.0001) // =======================================================
(PID.TID 0000.0001) // END OF FIELD                                          =
(PID.TID 0000.0001) // =======================================================
(PID.TID 0000.0001) 
(PID.TID 0000.0001) Start initial hydrostatic pressure computation
(PID.TID 0000.0001) Pressure is predetermined for buoyancyRelation OCEANIC
(PID.TID 0000.0001) 
(PID.TID 0000.0001)  MDSREADFIELD: opening global file: windx.sin_y
(PID.TID 0000.0001) // =======================================================
(PID.TID 0000.0001) // Model current state
(PID.TID 0000.0001) // =======================================================
(PID.TID 0000.0001) 
 cg2d: Sum(rhs),rhsMax =   0.00000000000000E+00  0.00000000000000E+00
 cg2d: Sum(rhs),rhsMax =   4.68375338513738E-16  2.62483626325265E-03
 cg2d: Sum(rhs),rhsMax =   5.04804531509251E-16  5.13362633360820E-03
 cg2d: Sum(rhs),rhsMax =   1.55257751099924E-16  7.16168459292049E-03
 cg2d: Sum(rhs),rhsMax =  -2.36789754470834E-16  9.29466756106813E-03
 cg2d: Sum(rhs),rhsMax =  -1.52655665885959E-16  1.15304356817127E-02
 cg2d: Sum(rhs),rhsMax =  -6.72205346941013E-17  1.37809802385201E-02
 cg2d: Sum(rhs),rhsMax =   2.70616862252382E-16  1.60011247512520E-02
 cg2d: Sum(rhs),rhsMax =   6.31439345255558E-16  1.82027338070572E-02
 cg2d: Sum(rhs),rhsMax =   5.96744875736022E-16  2.04493561061850E-02
 cg2d: Sum(rhs),rhsMax =   9.71445146547012E-17  2.25706027946462E-02
 cg2d: Sum(rhs),rhsMax =  -1.66533453693773E-16  2.45301657366488E-02
 cg2d: Sum(rhs),rhsMax =  -6.38378239159465E-16  2.63097944553774E-02
 cg2d: Sum(rhs),rhsMax =  -7.35522753814166E-16  2.79110497347513E-02
 cg2d: Sum(rhs),rhsMax =  -5.13478148889135E-16  2.93538602445205E-02
 cg2d: Sum(rhs),rhsMax =  -1.45716771982052E-16  3.06720439086497E-02
 cg2d: Sum(rhs),rhsMax =   2.70616862252382E-16  3.19067816493711E-02
 cg2d: Sum(rhs),rhsMax =  -1.45716771982052E-16  3.30992667426092E-02
 cg2d: Sum(rhs),rhsMax =  -5.82867087928207E-16  3.42837432535849E-02
 cg2d: Sum(rhs),rhsMax =  -7.97972798949331E-16  3.54819650392315E-02
 cg2d: Sum(rhs),rhsMax =  -8.32667268468867E-16  3.66998057995677E-02
 cg2d: Sum(rhs),rhsMax =  -1.01307850997046E-15  3.79264044981140E-02
 cg2d: Sum(rhs),rhsMax =  -7.21644966006352E-16  3.91358857815812E-02
 cg2d: Sum(rhs),rhsMax =  -9.15933995315754E-16  4.02913638647439E-02
 cg2d: Sum(rhs),rhsMax =  -1.81799020282369E-15  4.13506294017280E-02
 cg2d: Sum(rhs),rhsMax =  -2.05391259555654E-15  4.22726605991747E-02
 cg2d: Sum(rhs),rhsMax =  -2.30371277609720E-15  4.30239434526050E-02
 cg2d: Sum(rhs),rhsMax =  -2.40085729075190E-15  4.35835861468940E-02
 cg2d: Sum(rhs),rhsMax =  -2.40085729075190E-15  4.39463977689055E-02
 cg2d: Sum(rhs),rhsMax =  -2.13717932240343E-15  4.41234513751598E-02
 cg2d: Sum(rhs),rhsMax =  -2.85882428840978E-15  4.41400961277773E-02
 cg2d: Sum(rhs),rhsMax =  -3.02535774210355E-15  4.40318240259059E-02
 cg2d: Sum(rhs),rhsMax =  -3.23352455922077E-15  4.38387396290959E-02
 cg2d: Sum(rhs),rhsMax =  -2.76167977375508E-15  4.54379561185709E-02
 cg2d: Sum(rhs),rhsMax =  -2.31759056390501E-15  4.77259342377896E-02
 cg2d: Sum(rhs),rhsMax =  -2.78943534937071E-15  4.99949943764760E-02
 cg2d: Sum(rhs),rhsMax =  -2.35922392732846E-15  5.22073347226073E-02
 cg2d: Sum(rhs),rhsMax =  -1.98452365651747E-15  5.43317155998523E-02
 cg2d: Sum(rhs),rhsMax =  -1.44328993201270E-15  5.63476435310493E-02
 cg2d: Sum(rhs),rhsMax =  -2.10942374678780E-15  5.82478248497527E-02
 cg2d: Sum(rhs),rhsMax =  -1.60982338570648E-15  6.00385228395944E-02
 cg2d: Sum(rhs),rhsMax =  -1.16573417585641E-15  6.17377930021098E-02
 cg2d: Sum(rhs),rhsMax =  -1.55431223447522E-15  6.33719183655349E-02
 cg2d: Sum(rhs),rhsMax =  -1.58206781009085E-15  6.49706562308321E-02
 cg2d: Sum(rhs),rhsMax =  -1.38777878078145E-15  6.65620855586560E-02
 cg2d: Sum(rhs),rhsMax =  -9.15933995315754E-16  6.81678812624540E-02
 cg2d: Sum(rhs),rhsMax =  -8.04911692853238E-16  6.97997396580650E-02
 cg2d: Sum(rhs),rhsMax =  -1.94289029309402E-16  7.14574667798487E-02
 cg2d: Sum(rhs),rhsMax =  -1.11022302462516E-16  7.31289628255825E-02
 cg2d: Sum(rhs),rhsMax =   4.99600361081320E-16  7.47920399880644E-02
 cg2d: Sum(rhs),rhsMax =  -1.38777878078145E-16  7.64177404169232E-02
 cg2d: Sum(rhs),rhsMax =   1.94289029309402E-16  7.79746098435746E-02
 cg2d: Sum(rhs),rhsMax =   6.66133814775094E-16  7.94332548078090E-02
 cg2d: Sum(rhs),rhsMax =   2.77555756156289E-16  8.07704826367185E-02
 cg2d: Sum(rhs),rhsMax =   3.60822483003176E-16  8.19723982101448E-02
 cg2d: Sum(rhs),rhsMax =   6.38378239159465E-16  8.30360018555375E-02
 cg2d: Sum(rhs),rhsMax =   1.22124532708767E-15  8.39690748223108E-02
 cg2d: Sum(rhs),rhsMax =   1.27675647831893E-15  8.47884146395015E-02
 cg2d: Sum(rhs),rhsMax =   1.47104550762833E-15  8.55167454656651E-02
 cg2d: Sum(rhs),rhsMax =   1.15185638804860E-15  8.61788323354697E-02
 cg2d: Sum(rhs),rhsMax =   8.60422844084496E-16  8.67974383709834E-02
 cg2d: Sum(rhs),rhsMax =   4.44089209850063E-16  8.73897649974470E-02
 cg2d: Sum(rhs),rhsMax =  -2.22044604925031E-16  8.79649128046370E-02
 cg2d: Sum(rhs),rhsMax =  -6.10622663543836E-16  8.85227187211872E-02
 cg2d: Sum(rhs),rhsMax =  -7.35522753814166E-16  8.90540982174305E-02
 cg2d: Sum(rhs),rhsMax =  -5.13478148889135E-16  8.95427868057927E-02
 cg2d: Sum(rhs),rhsMax =   0.00000000000000E+00  8.99681673672946E-02
 cg2d: Sum(rhs),rhsMax =  -5.82867087928207E-16  9.03087161897659E-02
 cg2d: Sum(rhs),rhsMax =  -3.19189119579733E-16  9.05455200832772E-02
 cg2d: Sum(rhs),rhsMax =   1.11022302462516E-16  9.06653192885417E-02
 cg2d: Sum(rhs),rhsMax =   4.71844785465692E-16  9.06626154682065E-02
 cg2d: Sum(rhs),rhsMax =   5.82867087928207E-16  9.05405387552310E-02
 cg2d: Sum(rhs),rhsMax =   2.84494650060196E-16  9.03103691566379E-02
 cg2d: Sum(rhs),rhsMax =   1.31838984174237E-16  8.99898232453008E-02
 cg2d: Sum(rhs),rhsMax =  -3.45209971719385E-16  8.96004110576318E-02
 cg2d: Sum(rhs),rhsMax =  -3.66460334300100E-16  8.91643078600044E-02
 cg2d: Sum(rhs),rhsMax =  -4.44089209850063E-16  8.87012485136300E-02
 cg2d: Sum(rhs),rhsMax =  -6.10622663543836E-16  8.82259307135960E-02
 cg2d: Sum(rhs),rhsMax =  -7.28583859910259E-17  8.77463149512888E-02
 cg2d: Sum(rhs),rhsMax =   1.56125112837913E-16  8.72630538180604E-02
 cg2d: Sum(rhs),rhsMax =   1.52655665885959E-16  8.67700989679593E-02
 cg2d: Sum(rhs),rhsMax =  -2.42861286636753E-17  8.62563504465464E-02
 cg2d: Sum(rhs),rhsMax =   7.97972798949331E-17  8.57080573247669E-02
 cg2d: Sum(rhs),rhsMax =   3.50414142147315E-16  8.51115720561628E-02
 cg2d: Sum(rhs),rhsMax =   7.45931094670027E-17  8.44560174708962E-02
 cg2d: Sum(rhs),rhsMax =  -3.88578058618805E-16  8.37354498206653E-02
 cg2d: Sum(rhs),rhsMax =   8.67361737988404E-18  8.29501893488527E-02
 cg2d: Sum(rhs),rhsMax =  -2.44162329243736E-16  8.21071276696410E-02
 cg2d: Sum(rhs),rhsMax =  -9.54097911787244E-18  8.12189869688258E-02
 cg2d: Sum(rhs),rhsMax =   1.71737624121704E-16  8.03026728589166E-02
 cg2d: Sum(rhs),rhsMax =   5.37764277552810E-17  7.93770033021947E-02
 cg2d: Sum(rhs),rhsMax =  -2.41126563160776E-16  7.84601876100368E-02
 cg2d: Sum(rhs),rhsMax =  -2.68882138776405E-16  7.75674583088875E-02
 cg2d: Sum(rhs),rhsMax =  -1.00613961606655E-16  7.67092221211155E-02
 cg2d: Sum(rhs),rhsMax =  -5.10008701937181E-16  7.58900031130244E-02
 cg2d: Sum(rhs),rhsMax =  -6.38378239159465E-16  7.51083186671279E-02
 cg2d: Sum(rhs),rhsMax =  -9.92261828258734E-16  7.43574798187396E-02
 cg2d: Sum(rhs),rhsMax =  -1.12410081243297E-15  7.36271651321575E-02
 cg2d: Sum(rhs),rhsMax =  -7.84095011141517E-16  7.29055026842781E-02
 cg2d: Sum(rhs),rhsMax =  -8.67361737988404E-16  7.21813238566386E-02
 --> objf_test(bi,bj)   = -0.849803587119861E+00
 --> objf_tracer(bi,bj) =  0.000000000000000E+00
 --> objf_atl(bi,bj)    =  0.000000000000000E+00
  local fc = -0.849803587119861E+00
 global fc = -0.849803587119861E+00
 ph-check fcpertplus =  -0.849803587
(PID.TID 0000.0001)  MDSREADFIELD: opening file: xx_depth.0000000000.001.001.data
 ph-check fcpertminus =  -0.849803598
(PID.TID 0000.0001)  MDSREADFIELD: opening file: xx_depth.0000000000.001.001.data
(PID.TID 0000.0001)  MDSREADFIELD: opening global file: walls.bigRidge
(PID.TID 0000.0001) // =======================================================
(PID.TID 0000.0001) // Field Bottom depths (ini_depths) at iteration          1
(PID.TID 0000.0001) // CMIN =         -5.000000000000000E+03
(PID.TID 0000.0001) // CMAX =         -2.000000000000000E+03
(PID.TID 0000.0001) // CINT =          1.111111111111111E+02
(PID.TID 0000.0001) // SYMBOLS (CMIN->CMAX): -abcdefghijklmnopqrstuvwxyz+
(PID.TID 0000.0001) //                  0.0: .
(PID.TID 0000.0001) // RANGE I (Lo:Hi:Step):(  -1:   7:   1)
(PID.TID 0000.0001) // RANGE J (Lo:Hi:Step):(   7:  -1:  -1)
(PID.TID 0000.0001) // RANGE K (Lo:Hi:Step):(   1:   1:   1)
(PID.TID 0000.0001) // =======================================================
(PID.TID 0000.0001) K =   1
(PID.TID 0000.0001) //
(PID.TID 0000.0001) // |--J--|*01234567
(PID.TID 0000.0001) //      7 ----+----
(PID.TID 0000.0001) //      6 .........
(PID.TID 0000.0001) //      5 ----+----
(PID.TID 0000.0001) //      4 ----+----
(PID.TID 0000.0001) //      3 ----+----
(PID.TID 0000.0001) //      2 ----+----
(PID.TID 0000.0001) //      1 .........
(PID.TID 0000.0001) //      0 ----+----
(PID.TID 0000.0001) //     -1 ----+----
(PID.TID 0000.0001) // =======================================================
(PID.TID 0000.0001) // END OF FIELD                                          =
(PID.TID 0000.0001) // =======================================================
(PID.TID 0000.0001) 
(PID.TID 0000.0001) // =======================================================
(PID.TID 0000.0001) // Field Model R_low (ini_masks_etc) at iteration          1
(PID.TID 0000.0001) // CMIN =         -5.000000000000000E+03
(PID.TID 0000.0001) // CMAX =         -2.000000000000000E+03
(PID.TID 0000.0001) // CINT =          1.111111111111111E+02
(PID.TID 0000.0001) // SYMBOLS (CMIN->CMAX): -abcdefghijklmnopqrstuvwxyz+
(PID.TID 0000.0001) //                  0.0: .
(PID.TID 0000.0001) // RANGE I (Lo:Hi:Step):(  -1:   7:   1)
(PID.TID 0000.0001) // RANGE J (Lo:Hi:Step):(   7:  -1:  -1)
(PID.TID 0000.0001) // RANGE K (Lo:Hi:Step):(   1:   1:   1)
(PID.TID 0000.0001) // =======================================================
(PID.TID 0000.0001) K =   1
(PID.TID 0000.0001) //
(PID.TID 0000.0001) // |--J--|*01234567
(PID.TID 0000.0001) //      7 ----+----
(PID.TID 0000.0001) //      6 .........
(PID.TID 0000.0001) //      5 ----+----
(PID.TID 0000.0001) //      4 ----+----
(PID.TID 0000.0001) //      3 ----+----
(PID.TID 0000.0001) //      2 ----+----
(PID.TID 0000.0001) //      1 .........
(PID.TID 0000.0001) //      0 ----+----
(PID.TID 0000.0001) //     -1 ----+----
(PID.TID 0000.0001) // =======================================================
(PID.TID 0000.0001) // END OF FIELD                                          =
(PID.TID 0000.0001) // =======================================================
(PID.TID 0000.0001) 
(PID.TID 0000.0001) // =======================================================
(PID.TID 0000.0001) // Field Model Ro_surf (ini_masks_etc) at iteration          1
(PID.TID 0000.0001) // CMIN =          2.273736754432321E-13
(PID.TID 0000.0001) // CMAX =          2.273736754432321E-13
(PID.TID 0000.0001) // CINT =          0.000000000000000E+00
(PID.TID 0000.0001) // SYMBOLS (CMIN->CMAX): -abcdefghijklmnopqrstuvwxyz+
(PID.TID 0000.0001) //                  0.0: .
(PID.TID 0000.0001) // RANGE I (Lo:Hi:Step):(  -1:   7:   1)
(PID.TID 0000.0001) // RANGE J (Lo:Hi:Step):(   7:  -1:  -1)
(PID.TID 0000.0001) // RANGE K (Lo:Hi:Step):(   1:   1:   1)
(PID.TID 0000.0001) // =======================================================
(PID.TID 0000.0001) // =======================================================
(PID.TID 0000.0001) // END OF FIELD                                          =
(PID.TID 0000.0001) // =======================================================
(PID.TID 0000.0001) 
(PID.TID 0000.0001) // =======================================================
(PID.TID 0000.0001) // Field hFacC at iteration          1
(PID.TID 0000.0001) // CMIN =          1.000000000000000E+00
(PID.TID 0000.0001) // CMAX =          1.000000000000000E+00
(PID.TID 0000.0001) // CINT =          0.000000000000000E+00
(PID.TID 0000.0001) // SYMBOLS (CMIN->CMAX): -abcdefghijklmnopqrstuvwxyz+
(PID.TID 0000.0001) //                  0.0: .
(PID.TID 0000.0001) // RANGE I (Lo:Hi:Step):(  -1:   7:   1)
(PID.TID 0000.0001) // RANGE J (Lo:Hi:Step):(   7:  -1:  -1)
(PID.TID 0000.0001) // RANGE K (Lo:Hi:Step):(   1:   1:   1)
(PID.TID 0000.0001) // =======================================================
(PID.TID 0000.0001) // =======================================================
(PID.TID 0000.0001) // END OF FIELD                                          =
(PID.TID 0000.0001) // =======================================================
(PID.TID 0000.0001) 
(PID.TID 0000.0001) // =======================================================
(PID.TID 0000.0001) // Field hFacW at iteration          1
(PID.TID 0000.0001) // CMIN =          1.000000000000000E+00
(PID.TID 0000.0001) // CMAX =          1.000000000000000E+00
(PID.TID 0000.0001) // CINT =          0.000000000000000E+00
(PID.TID 0000.0001) // SYMBOLS (CMIN->CMAX): -abcdefghijklmnopqrstuvwxyz+
(PID.TID 0000.0001) //                  0.0: .
(PID.TID 0000.0001) // RANGE I (Lo:Hi:Step):(  -1:   7:   1)
(PID.TID 0000.0001) // RANGE J (Lo:Hi:Step):(   7:  -1:  -1)
(PID.TID 0000.0001) // RANGE K (Lo:Hi:Step):(   1:   1:   1)
(PID.TID 0000.0001) // =======================================================
(PID.TID 0000.0001) // =======================================================
(PID.TID 0000.0001) // END OF FIELD                                          =
(PID.TID 0000.0001) // =======================================================
(PID.TID 0000.0001) 
(PID.TID 0000.0001) // =======================================================
(PID.TID 0000.0001) // Field hFacS at iteration          1
(PID.TID 0000.0001) // CMIN =          1.000000000000000E+00
(PID.TID 0000.0001) // CMAX =          1.000000000000000E+00
(PID.TID 0000.0001) // CINT =          0.000000000000000E+00
(PID.TID 0000.0001) // SYMBOLS (CMIN->CMAX): -abcdefghijklmnopqrstuvwxyz+
(PID.TID 0000.0001) //                  0.0: .
(PID.TID 0000.0001) // RANGE I (Lo:Hi:Step):(  -1:   7:   1)
(PID.TID 0000.0001) // RANGE J (Lo:Hi:Step):(   7:  -1:  -1)
(PID.TID 0000.0001) // RANGE K (Lo:Hi:Step):(   1:   1:   1)
(PID.TID 0000.0001) // =======================================================
(PID.TID 0000.0001) // =======================================================
(PID.TID 0000.0001) // END OF FIELD                                          =
(PID.TID 0000.0001) // =======================================================
(PID.TID 0000.0001) 
(PID.TID 0000.0001) %MON surfExpanfCori_max           =  -1.0735540000000E-04
(PID.TID 0000.0001) %MON surfExpanfCori_min           =  -1.1783060000000E-04
(PID.TID 0000.0001) %MON surfExpanfCori_mean          =  -1.1259300000000E-04
(PID.TID 0000.0001) %MON surfExpanfCori_sd            =   3.7035424771427E-06
(PID.TID 0000.0001) %MON surfExpanfCoriG_max          =  -1.0866480000000E-04
(PID.TID 0000.0001) %MON surfExpanfCoriG_min          =  -1.1914000000000E-04
(PID.TID 0000.0001) %MON surfExpanfCoriG_mean         =  -1.1390240000000E-04
(PID.TID 0000.0001) %MON surfExpanfCoriG_sd           =   3.7035424771427E-06
(PID.TID 0000.0001) %MON surfExpanfCoriCos_max        =   0.0000000000000E+00
(PID.TID 0000.0001) %MON surfExpanfCoriCos_min        =   0.0000000000000E+00
(PID.TID 0000.0001) %MON surfExpanfCoriCos_mean       =   0.0000000000000E+00
(PID.TID 0000.0001) %MON surfExpanfCoriCos_sd         =   0.0000000000000E+00
(PID.TID 0000.0001) INI_CG2D: CG2D normalisation factor =  1.9999999999999996E-04
(PID.TID 0000.0001) 
                     ctrl_depth_ini: ctrl update R_low,
                                     adding the control vector.
(PID.TID 0000.0001)  MDSREADFIELD: opening file: xx_depth.0000000000.001.001.data
(PID.TID 0000.0001) // =======================================================
(PID.TID 0000.0001) // Field Model Ro_surf (update_masks_etc) at iteration          1
(PID.TID 0000.0001) // CMIN =          2.273736754432321E-13
(PID.TID 0000.0001) // CMAX =          2.273736754432321E-13
(PID.TID 0000.0001) // CINT =          0.000000000000000E+00
(PID.TID 0000.0001) // SYMBOLS (CMIN->CMAX): -abcdefghijklmnopqrstuvwxyz+
(PID.TID 0000.0001) //                  0.0: .
(PID.TID 0000.0001) // RANGE I (Lo:Hi:Step):(  -1:   7:   1)
(PID.TID 0000.0001) // RANGE J (Lo:Hi:Step):(   7:  -1:  -1)
(PID.TID 0000.0001) // RANGE K (Lo:Hi:Step):(   1:   1:   1)
(PID.TID 0000.0001) // =======================================================
(PID.TID 0000.0001) // =======================================================
(PID.TID 0000.0001) // END OF FIELD                                          =
(PID.TID 0000.0001) // =======================================================
(PID.TID 0000.0001) 
(PID.TID 0000.0001) // =======================================================
(PID.TID 0000.0001) // Field hFacC at iteration          1
(PID.TID 0000.0001) // CMIN =          1.000000000000000E+00
(PID.TID 0000.0001) // CMAX =          1.000000000000000E+00
(PID.TID 0000.0001) // CINT =          0.000000000000000E+00
(PID.TID 0000.0001) // SYMBOLS (CMIN->CMAX): -abcdefghijklmnopqrstuvwxyz+
(PID.TID 0000.0001) //                  0.0: .
(PID.TID 0000.0001) // RANGE I (Lo:Hi:Step):(  -1:   7:   1)
(PID.TID 0000.0001) // RANGE J (Lo:Hi:Step):(   7:  -1:  -1)
(PID.TID 0000.0001) // RANGE K (Lo:Hi:Step):(   1:   1:   1)
(PID.TID 0000.0001) // =======================================================
(PID.TID 0000.0001) // =======================================================
(PID.TID 0000.0001) // END OF FIELD                                          =
(PID.TID 0000.0001) // =======================================================
(PID.TID 0000.0001) 
(PID.TID 0000.0001) // =======================================================
(PID.TID 0000.0001) // Field hFacW at iteration          1
(PID.TID 0000.0001) // CMIN =          1.000000000000000E+00
(PID.TID 0000.0001) // CMAX =          1.000000000000000E+00
(PID.TID 0000.0001) // CINT =          0.000000000000000E+00
(PID.TID 0000.0001) // SYMBOLS (CMIN->CMAX): -abcdefghijklmnopqrstuvwxyz+
(PID.TID 0000.0001) //                  0.0: .
(PID.TID 0000.0001) // RANGE I (Lo:Hi:Step):(  -1:   7:   1)
(PID.TID 0000.0001) // RANGE J (Lo:Hi:Step):(   7:  -1:  -1)
(PID.TID 0000.0001) // RANGE K (Lo:Hi:Step):(   1:   1:   1)
(PID.TID 0000.0001) // =======================================================
(PID.TID 0000.0001) // =======================================================
(PID.TID 0000.0001) // END OF FIELD                                          =
(PID.TID 0000.0001) // =======================================================
(PID.TID 0000.0001) 
(PID.TID 0000.0001) // =======================================================
(PID.TID 0000.0001) // Field hFacS at iteration          1
(PID.TID 0000.0001) // CMIN =          1.000000000000000E+00
(PID.TID 0000.0001) // CMAX =          1.000000000000000E+00
(PID.TID 0000.0001) // CINT =          0.000000000000000E+00
(PID.TID 0000.0001) // SYMBOLS (CMIN->CMAX): -abcdefghijklmnopqrstuvwxyz+
(PID.TID 0000.0001) //                  0.0: .
(PID.TID 0000.0001) // RANGE I (Lo:Hi:Step):(  -1:   7:   1)
(PID.TID 0000.0001) // RANGE J (Lo:Hi:Step):(   7:  -1:  -1)
(PID.TID 0000.0001) // RANGE K (Lo:Hi:Step):(   1:   1:   1)
(PID.TID 0000.0001) // =======================================================
(PID.TID 0000.0001) // =======================================================
(PID.TID 0000.0001) // END OF FIELD                                          =
(PID.TID 0000.0001) // =======================================================
(PID.TID 0000.0001) 
(PID.TID 0000.0001) // =======================================================
(PID.TID 0000.0001) // Field Initial Temperature at iteration          1
(PID.TID 0000.0001) // CMIN =          4.000000000000000E+00
(PID.TID 0000.0001) // CMAX =          4.000000000000000E+00
(PID.TID 0000.0001) // CINT =          0.000000000000000E+00
(PID.TID 0000.0001) // SYMBOLS (CMIN->CMAX): -abcdefghijklmnopqrstuvwxyz+
(PID.TID 0000.0001) //                  0.0: .
(PID.TID 0000.0001) // RANGE I (Lo:Hi:Step):(   1:   5:   1)
(PID.TID 0000.0001) // RANGE J (Lo:Hi:Step):(   5:   1:  -1)
(PID.TID 0000.0001) // RANGE K (Lo:Hi:Step):(   1:   1:   1)
(PID.TID 0000.0001) // =======================================================
(PID.TID 0000.0001) // =======================================================
(PID.TID 0000.0001) // END OF FIELD                                          =
(PID.TID 0000.0001) // =======================================================
(PID.TID 0000.0001) 
(PID.TID 0000.0001) // =======================================================
(PID.TID 0000.0001) // Field Initial Salinity at iteration          1
(PID.TID 0000.0001) // CMIN =          3.500000000000000E+01
(PID.TID 0000.0001) // CMAX =          3.500000000000000E+01
(PID.TID 0000.0001) // CINT =          0.000000000000000E+00
(PID.TID 0000.0001) // SYMBOLS (CMIN->CMAX): -abcdefghijklmnopqrstuvwxyz+
(PID.TID 0000.0001) //                  0.0: .
(PID.TID 0000.0001) // RANGE I (Lo:Hi:Step):(   1:   5:   1)
(PID.TID 0000.0001) // RANGE J (Lo:Hi:Step):(   5:   1:  -1)
(PID.TID 0000.0001) // RANGE K (Lo:Hi:Step):(   1:   1:   1)
(PID.TID 0000.0001) // =======================================================
(PID.TID 0000.0001) // =======================================================
(PID.TID 0000.0001) // END OF FIELD                                          =
(PID.TID 0000.0001) // =======================================================
(PID.TID 0000.0001) 
(PID.TID 0000.0001) Start initial hydrostatic pressure computation
(PID.TID 0000.0001) Pressure is predetermined for buoyancyRelation OCEANIC
(PID.TID 0000.0001) 
(PID.TID 0000.0001)  MDSREADFIELD: opening global file: windx.sin_y
(PID.TID 0000.0001) // =======================================================
(PID.TID 0000.0001) // Model current state
(PID.TID 0000.0001) // =======================================================
(PID.TID 0000.0001) 
 cg2d: Sum(rhs),rhsMax =   0.00000000000000E+00  0.00000000000000E+00
 cg2d: Sum(rhs),rhsMax =   4.68375338513738E-16  2.62483626325265E-03
 cg2d: Sum(rhs),rhsMax =   2.94035629178069E-16  5.13362633360820E-03
 cg2d: Sum(rhs),rhsMax =  -1.49619899803000E-16  7.16168459269565E-03
 cg2d: Sum(rhs),rhsMax =  -9.76649316974942E-16  9.29466755865214E-03
 cg2d: Sum(rhs),rhsMax =  -9.64506252643105E-16  1.15304356777895E-02
 cg2d: Sum(rhs),rhsMax =  -1.01611427605341E-15  1.37809802322538E-02
 cg2d: Sum(rhs),rhsMax =  -1.47798440153224E-15  1.60011247426057E-02
 cg2d: Sum(rhs),rhsMax =  -1.09634523681734E-15  1.82027337753879E-02
 cg2d: Sum(rhs),rhsMax =  -9.29811783123569E-16  2.04493560681252E-02
 cg2d: Sum(rhs),rhsMax =  -6.10622663543836E-16  2.25706027531735E-02
 cg2d: Sum(rhs),rhsMax =  -1.80411241501588E-16  2.45301656957552E-02
 cg2d: Sum(rhs),rhsMax =  -9.71445146547012E-16  2.63097944196079E-02
 cg2d: Sum(rhs),rhsMax =  -1.66533453693773E-16  2.79110497086771E-02
 cg2d: Sum(rhs),rhsMax =   7.35522753814166E-16  2.93538602322122E-02
 cg2d: Sum(rhs),rhsMax =   3.81639164714898E-16  3.06720439132348E-02
 cg2d: Sum(rhs),rhsMax =   5.34294830600857E-16  3.19067816727361E-02
 cg2d: Sum(rhs),rhsMax =   1.25593979660721E-15  3.30992667852905E-02
 cg2d: Sum(rhs),rhsMax =   1.11022302462516E-15  3.42837433148552E-02
 cg2d: Sum(rhs),rhsMax =   1.13797860024079E-15  3.54819651173637E-02
 cg2d: Sum(rhs),rhsMax =   7.28583859910259E-16  3.66998058922268E-02
 cg2d: Sum(rhs),rhsMax =   6.10622663543836E-16  3.79264046028139E-02
 cg2d: Sum(rhs),rhsMax =   1.22818422099158E-15  3.91358858961310E-02
 cg2d: Sum(rhs),rhsMax =   1.23512311489549E-15  4.02913639876163E-02
 cg2d: Sum(rhs),rhsMax =  -3.05311331771918E-16  4.13506295322940E-02
 cg2d: Sum(rhs),rhsMax =  -4.30211422042248E-16  4.22726607377736E-02
 cg2d: Sum(rhs),rhsMax =  -4.57966997657877E-16  4.30239436004437E-02
 cg2d: Sum(rhs),rhsMax =  -8.60422844084496E-16  4.35835863057986E-02
 cg2d: Sum(rhs),rhsMax =  -7.77156117237610E-16  4.39463979409688E-02
 cg2d: Sum(rhs),rhsMax =  -1.05471187339390E-15  4.41234515623446E-02
 cg2d: Sum(rhs),rhsMax =  -1.30451205393456E-15  4.41400963315395E-02
 cg2d: Sum(rhs),rhsMax =  -1.12410081243297E-15  4.40318242468982E-02
 cg2d: Sum(rhs),rhsMax =  -1.15185638804860E-15  4.38387398669959E-02
 cg2d: Sum(rhs),rhsMax =  -5.68989300120393E-16  4.54379567683382E-02
 cg2d: Sum(rhs),rhsMax =  -6.10622663543836E-16  4.77259349285057E-02
 cg2d: Sum(rhs),rhsMax =  -1.08246744900953E-15  4.99949951049624E-02
 cg2d: Sum(rhs),rhsMax =  -1.45716771982052E-15  5.22073354871659E-02
 cg2d: Sum(rhs),rhsMax =  -1.59594559789866E-15  5.43317164006220E-02
 cg2d: Sum(rhs),rhsMax =  -1.73472347597681E-15  5.63476443700474E-02
 cg2d: Sum(rhs),rhsMax =  -2.27595720048157E-15  5.82478257306025E-02
 cg2d: Sum(rhs),rhsMax =  -1.74860126378462E-15  6.00385237669912E-02
 cg2d: Sum(rhs),rhsMax =  -1.74860126378462E-15  6.17377939811150E-02
 cg2d: Sum(rhs),rhsMax =  -2.19269047363468E-15  6.33719194008151E-02
 cg2d: Sum(rhs),rhsMax =  -2.49800180540660E-15  6.49706573259626E-02
 cg2d: Sum(rhs),rhsMax =  -2.80331313717852E-15  6.65620867155975E-02
 cg2d: Sum(rhs),rhsMax =  -2.16493489801906E-15  6.81678824812758E-02
 cg2d: Sum(rhs),rhsMax =  -2.02615701994091E-15  6.97997409369529E-02
 cg2d: Sum(rhs),rhsMax =  -2.30371277609720E-15  7.14574681153851E-02
 cg2d: Sum(rhs),rhsMax =  -2.49800180540660E-15  7.31289642132469E-02
 cg2d: Sum(rhs),rhsMax =  -2.44249065417534E-15  7.47920414228694E-02
 cg2d: Sum(rhs),rhsMax =  -2.44249065417534E-15  7.64177418940815E-02
 cg2d: Sum(rhs),rhsMax =  -2.66453525910038E-15  7.79746113590937E-02
 cg2d: Sum(rhs),rhsMax =  -2.49800180540660E-15  7.94332563589202E-02
 cg2d: Sum(rhs),rhsMax =  -2.96984659087229E-15  8.07704842220794E-02
 cg2d: Sum(rhs),rhsMax =  -3.05311331771918E-15  8.19723998297881E-02
 cg2d: Sum(rhs),rhsMax =  -2.96984659087229E-15  8.30360035105827E-02
 cg2d: Sum(rhs),rhsMax =  -2.73392419813945E-15  8.39690765144899E-02
 cg2d: Sum(rhs),rhsMax =  -2.83106871279415E-15  8.47884163705788E-02
 cg2d: Sum(rhs),rhsMax =  -2.92821322744885E-15  8.55167472368459E-02
 cg2d: Sum(rhs),rhsMax =  -2.87270207621759E-15  8.61788341468933E-02
 cg2d: Sum(rhs),rhsMax =  -2.51187959321442E-15  8.67974402213757E-02
 cg2d: Sum(rhs),rhsMax =  -2.52575738102223E-15  8.73897668839861E-02
 cg2d: Sum(rhs),rhsMax =  -2.53963516883005E-15  8.79649147230469E-02
 cg2d: Sum(rhs),rhsMax =  -2.85882428840978E-15  8.85227206660402E-02
 cg2d: Sum(rhs),rhsMax =  -2.34534613952064E-15  8.90541001826062E-02
 cg2d: Sum(rhs),rhsMax =  -2.69229083471600E-15  8.95427887850198E-02
 cg2d: Sum(rhs),rhsMax =  -2.38697950294409E-15  8.99681693546896E-02
 cg2d: Sum(rhs),rhsMax =  -2.45636844198316E-15  9.03087181802871E-02
 cg2d: Sum(rhs),rhsMax =  -2.10248485288389E-15  9.05455220730250E-02
 cg2d: Sum(rhs),rhsMax =  -2.04697370165263E-15  9.06653212748658E-02
 cg2d: Sum(rhs),rhsMax =  -1.99146255042137E-15  9.06626174496084E-02
 cg2d: Sum(rhs),rhsMax =  -1.98452365651747E-15  9.05405407310824E-02
 cg2d: Sum(rhs),rhsMax =  -2.42167397246362E-15  9.03103711267677E-02
 cg2d: Sum(rhs),rhsMax =  -2.46330733588707E-15  8.99898252095153E-02
 cg2d: Sum(rhs),rhsMax =  -2.32279473433294E-15  8.96004130152509E-02
 cg2d: Sum(rhs),rhsMax =  -2.28831710524791E-15  8.91643098094815E-02
 cg2d: Sum(rhs),rhsMax =  -1.85268467234323E-15  8.87012504523176E-02
 cg2d: Sum(rhs),rhsMax =  -2.17881268582687E-15  8.82259326376873E-02
 cg2d: Sum(rhs),rhsMax =  -2.08166817117217E-15  8.77463168559425E-02
 cg2d: Sum(rhs),rhsMax =  -2.35228503342455E-15  8.72630556976833E-02
 cg2d: Sum(rhs),rhsMax =  -2.43555176027144E-15  8.67701008166020E-02
 cg2d: Sum(rhs),rhsMax =  -2.25860996572180E-15  8.62563522583466E-02
 cg2d: Sum(rhs),rhsMax =  -1.84748050191530E-15  8.57080590943728E-02
 cg2d: Sum(rhs),rhsMax =  -1.92207361138230E-15  8.51115737790730E-02
 cg2d: Sum(rhs),rhsMax =  -2.01054450865712E-15  8.44560191436666E-02
 cg2d: Sum(rhs),rhsMax =  -2.55177823316188E-15  8.37354514409566E-02
 cg2d: Sum(rhs),rhsMax =  -2.89872292835724E-15  8.29501909153177E-02
 cg2d: Sum(rhs),rhsMax =  -3.14201789586299E-15  8.21071291816738E-02
 cg2d: Sum(rhs),rhsMax =  -3.38791494858270E-15  8.12189884262184E-02
 cg2d: Sum(rhs),rhsMax =  -3.42260941810224E-15  8.03026742614803E-02
 cg2d: Sum(rhs),rhsMax =  -3.50587614494913E-15  7.93770046494064E-02
 cg2d: Sum(rhs),rhsMax =  -4.02282374079022E-15  7.84601889007667E-02
 cg2d: Sum(rhs),rhsMax =  -3.89792365051989E-15  7.75674595412480E-02
 cg2d: Sum(rhs),rhsMax =  -3.50067197452120E-15  7.67092232924527E-02
 cg2d: Sum(rhs),rhsMax =  -3.80945275324507E-15  7.58900042200489E-02
 cg2d: Sum(rhs),rhsMax =  -4.01415012341033E-15  7.51083197061623E-02
 cg2d: Sum(rhs),rhsMax =  -3.98986399474666E-15  7.43574807860406E-02
 cg2d: Sum(rhs),rhsMax =  -3.67067487516692E-15  7.36271660242602E-02
 cg2d: Sum(rhs),rhsMax =  -3.57353036051222E-15  7.29055034983111E-02
 cg2d: Sum(rhs),rhsMax =  -3.43475248243408E-15  7.21813245905594E-02
 --> objf_test(bi,bj)   = -0.849803608767953E+00
 --> objf_tracer(bi,bj) =  0.000000000000000E+00
 --> objf_atl(bi,bj)    =  0.000000000000000E+00
  local fc = -0.849803608767953E+00
 global fc = -0.849803608767953E+00
(PID.TID 0000.0001)  MDSREADFIELD: opening file: xx_depth.0000000000.001.001.data
 grad-res -------------------------------
 grad-res     0   14    4    4    1   -.849803598E+00 -.849803587E+00 -.849803609E+00
 grad-res     0   14   14   14   20   0.108231598E-03 0.108240458E-03 -.818674696E-04
(PID.TID 0000.0001)       precision_grdchk_result ADM    -8.49803597943908E-01     1.08231597616047E-04
 ph-grd  ierr ---------------------------
 ph-grd  ierr =  0, icomp =  14, ichknum =  14
(PID.TID 0000.0001)  MDSREADFIELD: opening file: adxx_depth.0000000000.001.001.data
(PID.TID 0000.0001)  MDSREADFIELD: opening file: xx_depth.0000000000.001.001.data
(PID.TID 0000.0001)  MDSREADFIELD: opening global file: walls.bigRidge
(PID.TID 0000.0001) // =======================================================
(PID.TID 0000.0001) // Field Bottom depths (ini_depths) at iteration          1
(PID.TID 0000.0001) // CMIN =         -5.000000000000000E+03
(PID.TID 0000.0001) // CMAX =         -2.000000000000000E+03
(PID.TID 0000.0001) // CINT =          1.111111111111111E+02
(PID.TID 0000.0001) // SYMBOLS (CMIN->CMAX): -abcdefghijklmnopqrstuvwxyz+
(PID.TID 0000.0001) //                  0.0: .
(PID.TID 0000.0001) // RANGE I (Lo:Hi:Step):(  -1:   7:   1)
(PID.TID 0000.0001) // RANGE J (Lo:Hi:Step):(   7:  -1:  -1)
(PID.TID 0000.0001) // RANGE K (Lo:Hi:Step):(   1:   1:   1)
(PID.TID 0000.0001) // =======================================================
(PID.TID 0000.0001) K =   1
(PID.TID 0000.0001) //
(PID.TID 0000.0001) // |--J--|*01234567
(PID.TID 0000.0001) //      7 ----+----
(PID.TID 0000.0001) //      6 .........
(PID.TID 0000.0001) //      5 ----+----
(PID.TID 0000.0001) //      4 ----+----
(PID.TID 0000.0001) //      3 ----+----
(PID.TID 0000.0001) //      2 ----+----
(PID.TID 0000.0001) //      1 .........
(PID.TID 0000.0001) //      0 ----+----
(PID.TID 0000.0001) //     -1 ----+----
(PID.TID 0000.0001) // =======================================================
(PID.TID 0000.0001) // END OF FIELD                                          =
(PID.TID 0000.0001) // =======================================================
(PID.TID 0000.0001) 
(PID.TID 0000.0001) // =======================================================
(PID.TID 0000.0001) // Field Model R_low (ini_masks_etc) at iteration          1
(PID.TID 0000.0001) // CMIN =         -5.000000000000000E+03
(PID.TID 0000.0001) // CMAX =         -2.000000000000000E+03
(PID.TID 0000.0001) // CINT =          1.111111111111111E+02
(PID.TID 0000.0001) // SYMBOLS (CMIN->CMAX): -abcdefghijklmnopqrstuvwxyz+
(PID.TID 0000.0001) //                  0.0: .
(PID.TID 0000.0001) // RANGE I (Lo:Hi:Step):(  -1:   7:   1)
(PID.TID 0000.0001) // RANGE J (Lo:Hi:Step):(   7:  -1:  -1)
(PID.TID 0000.0001) // RANGE K (Lo:Hi:Step):(   1:   1:   1)
(PID.TID 0000.0001) // =======================================================
(PID.TID 0000.0001) K =   1
(PID.TID 0000.0001) //
(PID.TID 0000.0001) // |--J--|*01234567
(PID.TID 0000.0001) //      7 ----+----
(PID.TID 0000.0001) //      6 .........
(PID.TID 0000.0001) //      5 ----+----
(PID.TID 0000.0001) //      4 ----+----
(PID.TID 0000.0001) //      3 ----+----
(PID.TID 0000.0001) //      2 ----+----
(PID.TID 0000.0001) //      1 .........
(PID.TID 0000.0001) //      0 ----+----
(PID.TID 0000.0001) //     -1 ----+----
(PID.TID 0000.0001) // =======================================================
(PID.TID 0000.0001) // END OF FIELD                                          =
(PID.TID 0000.0001) // =======================================================
(PID.TID 0000.0001) 
(PID.TID 0000.0001) // =======================================================
(PID.TID 0000.0001) // Field Model Ro_surf (ini_masks_etc) at iteration          1
(PID.TID 0000.0001) // CMIN =          2.273736754432321E-13
(PID.TID 0000.0001) // CMAX =          2.273736754432321E-13
(PID.TID 0000.0001) // CINT =          0.000000000000000E+00
(PID.TID 0000.0001) // SYMBOLS (CMIN->CMAX): -abcdefghijklmnopqrstuvwxyz+
(PID.TID 0000.0001) //                  0.0: .
(PID.TID 0000.0001) // RANGE I (Lo:Hi:Step):(  -1:   7:   1)
(PID.TID 0000.0001) // RANGE J (Lo:Hi:Step):(   7:  -1:  -1)
(PID.TID 0000.0001) // RANGE K (Lo:Hi:Step):(   1:   1:   1)
(PID.TID 0000.0001) // =======================================================
(PID.TID 0000.0001) // =======================================================
(PID.TID 0000.0001) // END OF FIELD                                          =
(PID.TID 0000.0001) // =======================================================
(PID.TID 0000.0001) 
(PID.TID 0000.0001) // =======================================================
(PID.TID 0000.0001) // Field hFacC at iteration          1
(PID.TID 0000.0001) // CMIN =          1.000000000000000E+00
(PID.TID 0000.0001) // CMAX =          1.000000000000000E+00
(PID.TID 0000.0001) // CINT =          0.000000000000000E+00
(PID.TID 0000.0001) // SYMBOLS (CMIN->CMAX): -abcdefghijklmnopqrstuvwxyz+
(PID.TID 0000.0001) //                  0.0: .
(PID.TID 0000.0001) // RANGE I (Lo:Hi:Step):(  -1:   7:   1)
(PID.TID 0000.0001) // RANGE J (Lo:Hi:Step):(   7:  -1:  -1)
(PID.TID 0000.0001) // RANGE K (Lo:Hi:Step):(   1:   1:   1)
(PID.TID 0000.0001) // =======================================================
(PID.TID 0000.0001) // =======================================================
(PID.TID 0000.0001) // END OF FIELD                                          =
(PID.TID 0000.0001) // =======================================================
(PID.TID 0000.0001) 
(PID.TID 0000.0001) // =======================================================
(PID.TID 0000.0001) // Field hFacW at iteration          1
(PID.TID 0000.0001) // CMIN =          1.000000000000000E+00
(PID.TID 0000.0001) // CMAX =          1.000000000000000E+00
(PID.TID 0000.0001) // CINT =          0.000000000000000E+00
(PID.TID 0000.0001) // SYMBOLS (CMIN->CMAX): -abcdefghijklmnopqrstuvwxyz+
(PID.TID 0000.0001) //                  0.0: .
(PID.TID 0000.0001) // RANGE I (Lo:Hi:Step):(  -1:   7:   1)
(PID.TID 0000.0001) // RANGE J (Lo:Hi:Step):(   7:  -1:  -1)
(PID.TID 0000.0001) // RANGE K (Lo:Hi:Step):(   1:   1:   1)
(PID.TID 0000.0001) // =======================================================
(PID.TID 0000.0001) // =======================================================
(PID.TID 0000.0001) // END OF FIELD                                          =
(PID.TID 0000.0001) // =======================================================
(PID.TID 0000.0001) 
(PID.TID 0000.0001) // =======================================================
(PID.TID 0000.0001) // Field hFacS at iteration          1
(PID.TID 0000.0001) // CMIN =          1.000000000000000E+00
(PID.TID 0000.0001) // CMAX =          1.000000000000000E+00
(PID.TID 0000.0001) // CINT =          0.000000000000000E+00
(PID.TID 0000.0001) // SYMBOLS (CMIN->CMAX): -abcdefghijklmnopqrstuvwxyz+
(PID.TID 0000.0001) //                  0.0: .
(PID.TID 0000.0001) // RANGE I (Lo:Hi:Step):(  -1:   7:   1)
(PID.TID 0000.0001) // RANGE J (Lo:Hi:Step):(   7:  -1:  -1)
(PID.TID 0000.0001) // RANGE K (Lo:Hi:Step):(   1:   1:   1)
(PID.TID 0000.0001) // =======================================================
(PID.TID 0000.0001) // =======================================================
(PID.TID 0000.0001) // END OF FIELD                                          =
(PID.TID 0000.0001) // =======================================================
(PID.TID 0000.0001) 
(PID.TID 0000.0001) %MON surfExpanfCori_max           =  -1.0735540000000E-04
(PID.TID 0000.0001) %MON surfExpanfCori_min           =  -1.1783060000000E-04
(PID.TID 0000.0001) %MON surfExpanfCori_mean          =  -1.1259300000000E-04
(PID.TID 0000.0001) %MON surfExpanfCori_sd            =   3.7035424771427E-06
(PID.TID 0000.0001) %MON surfExpanfCoriG_max          =  -1.0866480000000E-04
(PID.TID 0000.0001) %MON surfExpanfCoriG_min          =  -1.1914000000000E-04
(PID.TID 0000.0001) %MON surfExpanfCoriG_mean         =  -1.1390240000000E-04
(PID.TID 0000.0001) %MON surfExpanfCoriG_sd           =   3.7035424771427E-06
(PID.TID 0000.0001) %MON surfExpanfCoriCos_max        =   0.0000000000000E+00
(PID.TID 0000.0001) %MON surfExpanfCoriCos_min        =   0.0000000000000E+00
(PID.TID 0000.0001) %MON surfExpanfCoriCos_mean       =   0.0000000000000E+00
(PID.TID 0000.0001) %MON surfExpanfCoriCos_sd         =   0.0000000000000E+00
(PID.TID 0000.0001) INI_CG2D: CG2D normalisation factor =  1.9999999999999996E-04
(PID.TID 0000.0001) 
                     ctrl_depth_ini: ctrl update R_low,
                                     adding the control vector.
(PID.TID 0000.0001)  MDSREADFIELD: opening file: xx_depth.0000000000.001.001.data
(PID.TID 0000.0001) // =======================================================
(PID.TID 0000.0001) // Field Model Ro_surf (update_masks_etc) at iteration          1
(PID.TID 0000.0001) // CMIN =          2.273736754432321E-13
(PID.TID 0000.0001) // CMAX =          2.273736754432321E-13
(PID.TID 0000.0001) // CINT =          0.000000000000000E+00
(PID.TID 0000.0001) // SYMBOLS (CMIN->CMAX): -abcdefghijklmnopqrstuvwxyz+
(PID.TID 0000.0001) //                  0.0: .
(PID.TID 0000.0001) // RANGE I (Lo:Hi:Step):(  -1:   7:   1)
(PID.TID 0000.0001) // RANGE J (Lo:Hi:Step):(   7:  -1:  -1)
(PID.TID 0000.0001) // RANGE K (Lo:Hi:Step):(   1:   1:   1)
(PID.TID 0000.0001) // =======================================================
(PID.TID 0000.0001) // =======================================================
(PID.TID 0000.0001) // END OF FIELD                                          =
(PID.TID 0000.0001) // =======================================================
(PID.TID 0000.0001) 
(PID.TID 0000.0001) // =======================================================
(PID.TID 0000.0001) // Field hFacC at iteration          1
(PID.TID 0000.0001) // CMIN =          1.000000000000000E+00
(PID.TID 0000.0001) // CMAX =          1.000000000000000E+00
(PID.TID 0000.0001) // CINT =          0.000000000000000E+00
(PID.TID 0000.0001) // SYMBOLS (CMIN->CMAX): -abcdefghijklmnopqrstuvwxyz+
(PID.TID 0000.0001) //                  0.0: .
(PID.TID 0000.0001) // RANGE I (Lo:Hi:Step):(  -1:   7:   1)
(PID.TID 0000.0001) // RANGE J (Lo:Hi:Step):(   7:  -1:  -1)
(PID.TID 0000.0001) // RANGE K (Lo:Hi:Step):(   1:   1:   1)
(PID.TID 0000.0001) // =======================================================
(PID.TID 0000.0001) // =======================================================
(PID.TID 0000.0001) // END OF FIELD                                          =
(PID.TID 0000.0001) // =======================================================
(PID.TID 0000.0001) 
(PID.TID 0000.0001) // =======================================================
(PID.TID 0000.0001) // Field hFacW at iteration          1
(PID.TID 0000.0001) // CMIN =          1.000000000000000E+00
(PID.TID 0000.0001) // CMAX =          1.000000000000000E+00
(PID.TID 0000.0001) // CINT =          0.000000000000000E+00
(PID.TID 0000.0001) // SYMBOLS (CMIN->CMAX): -abcdefghijklmnopqrstuvwxyz+
(PID.TID 0000.0001) //                  0.0: .
(PID.TID 0000.0001) // RANGE I (Lo:Hi:Step):(  -1:   7:   1)
(PID.TID 0000.0001) // RANGE J (Lo:Hi:Step):(   7:  -1:  -1)
(PID.TID 0000.0001) // RANGE K (Lo:Hi:Step):(   1:   1:   1)
(PID.TID 0000.0001) // =======================================================
(PID.TID 0000.0001) // =======================================================
(PID.TID 0000.0001) // END OF FIELD                                          =
(PID.TID 0000.0001) // =======================================================
(PID.TID 0000.0001) 
(PID.TID 0000.0001) // =======================================================
(PID.TID 0000.0001) // Field hFacS at iteration          1
(PID.TID 0000.0001) // CMIN =          1.000000000000000E+00
(PID.TID 0000.0001) // CMAX =          1.000000000000000E+00
(PID.TID 0000.0001) // CINT =          0.000000000000000E+00
(PID.TID 0000.0001) // SYMBOLS (CMIN->CMAX): -abcdefghijklmnopqrstuvwxyz+
(PID.TID 0000.0001) //                  0.0: .
(PID.TID 0000.0001) // RANGE I (Lo:Hi:Step):(  -1:   7:   1)
(PID.TID 0000.0001) // RANGE J (Lo:Hi:Step):(   7:  -1:  -1)
(PID.TID 0000.0001) // RANGE K (Lo:Hi:Step):(   1:   1:   1)
(PID.TID 0000.0001) // =======================================================
(PID.TID 0000.0001) // =======================================================
(PID.TID 0000.0001) // END OF FIELD                                          =
(PID.TID 0000.0001) // =======================================================
(PID.TID 0000.0001) 
(PID.TID 0000.0001) // =======================================================
(PID.TID 0000.0001) // Field Initial Temperature at iteration          1
(PID.TID 0000.0001) // CMIN =          4.000000000000000E+00
(PID.TID 0000.0001) // CMAX =          4.000000000000000E+00
(PID.TID 0000.0001) // CINT =          0.000000000000000E+00
(PID.TID 0000.0001) // SYMBOLS (CMIN->CMAX): -abcdefghijklmnopqrstuvwxyz+
(PID.TID 0000.0001) //                  0.0: .
(PID.TID 0000.0001) // RANGE I (Lo:Hi:Step):(   1:   5:   1)
(PID.TID 0000.0001) // RANGE J (Lo:Hi:Step):(   5:   1:  -1)
(PID.TID 0000.0001) // RANGE K (Lo:Hi:Step):(   1:   1:   1)
(PID.TID 0000.0001) // =======================================================
(PID.TID 0000.0001) // =======================================================
(PID.TID 0000.0001) // END OF FIELD                                          =
(PID.TID 0000.0001) // =======================================================
(PID.TID 0000.0001) 
(PID.TID 0000.0001) // =======================================================
(PID.TID 0000.0001) // Field Initial Salinity at iteration          1
(PID.TID 0000.0001) // CMIN =          3.500000000000000E+01
(PID.TID 0000.0001) // CMAX =          3.500000000000000E+01
(PID.TID 0000.0001) // CINT =          0.000000000000000E+00
(PID.TID 0000.0001) // SYMBOLS (CMIN->CMAX): -abcdefghijklmnopqrstuvwxyz+
(PID.TID 0000.0001) //                  0.0: .
(PID.TID 0000.0001) // RANGE I (Lo:Hi:Step):(   1:   5:   1)
(PID.TID 0000.0001) // RANGE J (Lo:Hi:Step):(   5:   1:  -1)
(PID.TID 0000.0001) // RANGE K (Lo:Hi:Step):(   1:   1:   1)
(PID.TID 0000.0001) // =======================================================
(PID.TID 0000.0001) // =======================================================
(PID.TID 0000.0001) // END OF FIELD                                          =
(PID.TID 0000.0001) // =======================================================
(PID.TID 0000.0001) 
(PID.TID 0000.0001) Start initial hydrostatic pressure computation
(PID.TID 0000.0001) Pressure is predetermined for buoyancyRelation OCEANIC
(PID.TID 0000.0001) 
(PID.TID 0000.0001)  MDSREADFIELD: opening global file: windx.sin_y
(PID.TID 0000.0001) // =======================================================
(PID.TID 0000.0001) // Model current state
(PID.TID 0000.0001) // =======================================================
(PID.TID 0000.0001) 
 cg2d: Sum(rhs),rhsMax =   0.00000000000000E+00  0.00000000000000E+00
 cg2d: Sum(rhs),rhsMax =   4.68375338513738E-16  2.62483626325265E-03
 cg2d: Sum(rhs),rhsMax =   7.06032454722560E-16  5.13362633360820E-03
 cg2d: Sum(rhs),rhsMax =   4.89625701094454E-16  7.16168459217003E-03
 cg2d: Sum(rhs),rhsMax =   5.29090660172926E-17  9.29466755860120E-03
 cg2d: Sum(rhs),rhsMax =  -1.59594559789866E-16  1.15304356777990E-02
 cg2d: Sum(rhs),rhsMax =  -5.26054894089967E-16  1.37809802328228E-02
 cg2d: Sum(rhs),rhsMax =   2.74086309204336E-16  1.60011247437311E-02
 cg2d: Sum(rhs),rhsMax =  -4.37150315946155E-16  1.82027338087306E-02
 cg2d: Sum(rhs),rhsMax =  -1.02695629777827E-15  2.04493561087034E-02
 cg2d: Sum(rhs),rhsMax =  -1.27675647831893E-15  2.25706027993334E-02
 cg2d: Sum(rhs),rhsMax =  -1.33226762955019E-15  2.45301657452689E-02
 cg2d: Sum(rhs),rhsMax =  -9.15933995315754E-16  2.63097944700024E-02
 cg2d: Sum(rhs),rhsMax =  -6.66133814775094E-16  2.79110497575908E-02
 cg2d: Sum(rhs),rhsMax =  -3.40005801291454E-16  2.93538602777324E-02
 cg2d: Sum(rhs),rhsMax =  -5.06539254985228E-16  3.06720439541646E-02
 cg2d: Sum(rhs),rhsMax =  -1.10328413072125E-15  3.19067817087525E-02
 cg2d: Sum(rhs),rhsMax =  -1.66533453693773E-16  3.30992668169724E-02
 cg2d: Sum(rhs),rhsMax =  -1.45716771982052E-16  3.42837433435803E-02
 cg2d: Sum(rhs),rhsMax =  -8.88178419700125E-16  3.54819651450955E-02
 cg2d: Sum(rhs),rhsMax =  -1.03389519168218E-15  3.66998059212273E-02
 cg2d: Sum(rhs),rhsMax =   1.38777878078145E-17  3.79264046353283E-02
 cg2d: Sum(rhs),rhsMax =  -1.80411241501588E-16  3.91358859340940E-02
 cg2d: Sum(rhs),rhsMax =  -2.08166817117217E-16  4.02913640324243E-02
 cg2d: Sum(rhs),rhsMax =  -3.05311331771918E-16  4.13506295846755E-02
 cg2d: Sum(rhs),rhsMax =  -4.02455846426619E-16  4.22726607977742E-02
 cg2d: Sum(rhs),rhsMax =  -6.80011602582908E-16  4.30239436675226E-02
 cg2d: Sum(rhs),rhsMax =   1.94289029309402E-16  4.35835863790184E-02
 cg2d: Sum(rhs),rhsMax =  -2.49800180540660E-16  4.39463980192430E-02
 cg2d: Sum(rhs),rhsMax =  -1.66533453693773E-16  4.41234516447016E-02
 cg2d: Sum(rhs),rhsMax =  -5.96744875736022E-16  4.41400964173611E-02
 cg2d: Sum(rhs),rhsMax =   2.22044604925031E-16  4.40318243360920E-02
 cg2d: Sum(rhs),rhsMax =   1.94289029309402E-16  4.38387399600783E-02
 cg2d: Sum(rhs),rhsMax =  -4.02455846426619E-16  4.54379559214345E-02
 cg2d: Sum(rhs),rhsMax =  -3.46944695195361E-16  4.77259340422786E-02
 cg2d: Sum(rhs),rhsMax =  -5.13478148889135E-16  4.99949941808428E-02
 cg2d: Sum(rhs),rhsMax =  -1.80411241501588E-16  5.22073345272440E-02
 cg2d: Sum(rhs),rhsMax =  -4.44089209850063E-16  5.43317154074519E-02
 cg2d: Sum(rhs),rhsMax =  -3.33066907387547E-16  5.63476433464093E-02
 cg2d: Sum(rhs),rhsMax =   5.27355936696949E-16  5.82478246792606E-02
 cg2d: Sum(rhs),rhsMax =   1.94289029309402E-16  6.00385226904838E-02
 cg2d: Sum(rhs),rhsMax =   8.32667268468867E-17  6.17377928816093E-02
 cg2d: Sum(rhs),rhsMax =   5.55111512312578E-16  6.33719182800457E-02
 cg2d: Sum(rhs),rhsMax =   5.27355936696949E-16  6.49706561852611E-02
 cg2d: Sum(rhs),rhsMax =   8.32667268468867E-16  6.65620855560030E-02
 cg2d: Sum(rhs),rhsMax =   1.19348975147204E-15  6.81678813037098E-02
 cg2d: Sum(rhs),rhsMax =   1.58206781009085E-15  6.97997397424251E-02
 cg2d: Sum(rhs),rhsMax =   1.30451205393456E-15  7.14574669051986E-02
 cg2d: Sum(rhs),rhsMax =   1.22124532708767E-15  7.31289629891695E-02
 cg2d: Sum(rhs),rhsMax =   1.24900090270330E-15  7.47920401872431E-02
 cg2d: Sum(rhs),rhsMax =   1.11022302462516E-15  7.64177406498548E-02
 cg2d: Sum(rhs),rhsMax =   1.58206781009085E-15  7.79746101097714E-02
 cg2d: Sum(rhs),rhsMax =   1.33226762955019E-15  7.94332551084396E-02
 cg2d: Sum(rhs),rhsMax =   1.77635683940025E-15  8.07704829746332E-02
 cg2d: Sum(rhs),rhsMax =   2.16493489801906E-15  8.19723985896210E-02
 cg2d: Sum(rhs),rhsMax =   2.30371277609720E-15  8.30360022817925E-02
 cg2d: Sum(rhs),rhsMax =   2.45636844198316E-15  8.39690753008621E-02
 cg2d: Sum(rhs),rhsMax =   2.65065747129256E-15  8.47884151754771E-02
 cg2d: Sum(rhs),rhsMax =   2.42861286636753E-15  8.55167460631723E-02
 cg2d: Sum(rhs),rhsMax =   2.23432383705813E-15  8.61788329971197E-02
 cg2d: Sum(rhs),rhsMax =   2.49800180540660E-15  8.67974390976376E-02
 cg2d: Sum(rhs),rhsMax =   2.34534613952064E-15  8.73897657882208E-02
 cg2d: Sum(rhs),rhsMax =   2.37310171513627E-15  8.79649136571511E-02
 cg2d: Sum(rhs),rhsMax =   2.22044604925031E-15  8.85227196320212E-02
 cg2d: Sum(rhs),rhsMax =   2.24820162486594E-15  8.90540991827003E-02
 cg2d: Sum(rhs),rhsMax =   2.10942374678780E-15  8.95427878217606E-02
 cg2d: Sum(rhs),rhsMax =   2.15105711021124E-15  8.99681684309137E-02
 cg2d: Sum(rhs),rhsMax =   1.83186799063151E-15  9.03087172990798E-02
 cg2d: Sum(rhs),rhsMax =   1.75554015768853E-15  9.05455212376117E-02
 cg2d: Sum(rhs),rhsMax =   1.35308431126191E-15  9.06653204884707E-02
 cg2d: Sum(rhs),rhsMax =   1.31145094783847E-15  9.06626167152988E-02
 cg2d: Sum(rhs),rhsMax =   1.23512311489549E-15  9.05405400516265E-02
 cg2d: Sum(rhs),rhsMax =   7.80625564189563E-16  9.03103705045233E-02
 cg2d: Sum(rhs),rhsMax =   2.67147415300428E-16  8.99898246463695E-02
 cg2d: Sum(rhs),rhsMax =   1.11022302462516E-16  8.96004125126131E-02
 cg2d: Sum(rhs),rhsMax =   4.05166351857833E-16  8.91643093683329E-02
 cg2d: Sum(rhs),rhsMax =  -1.76941794549634E-16  8.87012500733052E-02
 cg2d: Sum(rhs),rhsMax =  -1.00613961606655E-16  8.82259323212463E-02
 cg2d: Sum(rhs),rhsMax =  -1.73472347597681E-16  8.77463166024260E-02
 cg2d: Sum(rhs),rhsMax =  -3.22658566531686E-16  8.72630555074809E-02
 cg2d: Sum(rhs),rhsMax =  -3.05311331771918E-16  8.67701006902252E-02
 cg2d: Sum(rhs),rhsMax =  -4.68375338513738E-16  8.62563521964705E-02
 cg2d: Sum(rhs),rhsMax =  -4.71844785465692E-16  8.57080590978281E-02
 cg2d: Sum(rhs),rhsMax =  -5.30825383648903E-16  8.51115738487893E-02
 cg2d: Sum(rhs),rhsMax =  -3.24393290007663E-16  8.44560192805795E-02
 cg2d: Sum(rhs),rhsMax =  -5.67254576644416E-16  8.37354516458907E-02
 cg2d: Sum(rhs),rhsMax =  -9.28077059647592E-16  8.29501911888679E-02
 cg2d: Sum(rhs),rhsMax =  -8.43075609324728E-16  8.21071295241007E-02
 cg2d: Sum(rhs),rhsMax =  -5.06539254985228E-16  8.12189888373748E-02
 cg2d: Sum(rhs),rhsMax =  -3.07913416985883E-16  8.03026747407812E-02
 cg2d: Sum(rhs),rhsMax =  -8.32667268468867E-17  7.93770051958420E-02
 cg2d: Sum(rhs),rhsMax =  -4.07660016854550E-16  7.84601895129608E-02
 cg2d: Sum(rhs),rhsMax =  -5.03069808033274E-16  7.75674602175471E-02
 cg2d: Sum(rhs),rhsMax =  -1.42247325030098E-16  7.67092240310348E-02
 cg2d: Sum(rhs),rhsMax =  -4.26741975090295E-16  7.58900050190340E-02
 cg2d: Sum(rhs),rhsMax =  -5.41233724504764E-16  7.51083205637062E-02
 cg2d: Sum(rhs),rhsMax =  -6.03683769639929E-16  7.43574817004021E-02
 cg2d: Sum(rhs),rhsMax =  -8.46545056276682E-16  7.36271669938290E-02
 cg2d: Sum(rhs),rhsMax =  -6.93889390390723E-17  7.29055045215957E-02
 cg2d: Sum(rhs),rhsMax =  -1.87350135405495E-16  7.21813256661385E-02
 --> objf_test(bi,bj)   = -0.849803620809061E+00
 --> objf_tracer(bi,bj) =  0.000000000000000E+00
 --> objf_atl(bi,bj)    =  0.000000000000000E+00
  local fc = -0.849803620809061E+00
 global fc = -0.849803620809061E+00
 ph-check fcpertplus =  -0.849803621
(PID.TID 0000.0001)  MDSREADFIELD: opening file: xx_depth.0000000000.001.001.data
 ph-check fcpertminus =  -0.849803598
(PID.TID 0000.0001)  MDSREADFIELD: opening file: xx_depth.0000000000.001.001.data
(PID.TID 0000.0001)  MDSREADFIELD: opening global file: walls.bigRidge
(PID.TID 0000.0001) // =======================================================
(PID.TID 0000.0001) // Field Bottom depths (ini_depths) at iteration          1
(PID.TID 0000.0001) // CMIN =         -5.000000000000000E+03
(PID.TID 0000.0001) // CMAX =         -2.000000000000000E+03
(PID.TID 0000.0001) // CINT =          1.111111111111111E+02
(PID.TID 0000.0001) // SYMBOLS (CMIN->CMAX): -abcdefghijklmnopqrstuvwxyz+
(PID.TID 0000.0001) //                  0.0: .
(PID.TID 0000.0001) // RANGE I (Lo:Hi:Step):(  -1:   7:   1)
(PID.TID 0000.0001) // RANGE J (Lo:Hi:Step):(   7:  -1:  -1)
(PID.TID 0000.0001) // RANGE K (Lo:Hi:Step):(   1:   1:   1)
(PID.TID 0000.0001) // =======================================================
(PID.TID 0000.0001) K =   1
(PID.TID 0000.0001) //
(PID.TID 0000.0001) // |--J--|*01234567
(PID.TID 0000.0001) //      7 ----+----
(PID.TID 0000.0001) //      6 .........
(PID.TID 0000.0001) //      5 ----+----
(PID.TID 0000.0001) //      4 ----+----
(PID.TID 0000.0001) //      3 ----+----
(PID.TID 0000.0001) //      2 ----+----
(PID.TID 0000.0001) //      1 .........
(PID.TID 0000.0001) //      0 ----+----
(PID.TID 0000.0001) //     -1 ----+----
(PID.TID 0000.0001) // =======================================================
(PID.TID 0000.0001) // END OF FIELD                                          =
(PID.TID 0000.0001) // =======================================================
(PID.TID 0000.0001) 
(PID.TID 0000.0001) // =======================================================
(PID.TID 0000.0001) // Field Model R_low (ini_masks_etc) at iteration          1
(PID.TID 0000.0001) // CMIN =         -5.000000000000000E+03
(PID.TID 0000.0001) // CMAX =         -2.000000000000000E+03
(PID.TID 0000.0001) // CINT =          1.111111111111111E+02
(PID.TID 0000.0001) // SYMBOLS (CMIN->CMAX): -abcdefghijklmnopqrstuvwxyz+
(PID.TID 0000.0001) //                  0.0: .
(PID.TID 0000.0001) // RANGE I (Lo:Hi:Step):(  -1:   7:   1)
(PID.TID 0000.0001) // RANGE J (Lo:Hi:Step):(   7:  -1:  -1)
(PID.TID 0000.0001) // RANGE K (Lo:Hi:Step):(   1:   1:   1)
(PID.TID 0000.0001) // =======================================================
(PID.TID 0000.0001) K =   1
(PID.TID 0000.0001) //
(PID.TID 0000.0001) // |--J--|*01234567
(PID.TID 0000.0001) //      7 ----+----
(PID.TID 0000.0001) //      6 .........
(PID.TID 0000.0001) //      5 ----+----
(PID.TID 0000.0001) //      4 ----+----
(PID.TID 0000.0001) //      3 ----+----
(PID.TID 0000.0001) //      2 ----+----
(PID.TID 0000.0001) //      1 .........
(PID.TID 0000.0001) //      0 ----+----
(PID.TID 0000.0001) //     -1 ----+----
(PID.TID 0000.0001) // =======================================================
(PID.TID 0000.0001) // END OF FIELD                                          =
(PID.TID 0000.0001) // =======================================================
(PID.TID 0000.0001) 
(PID.TID 0000.0001) // =======================================================
(PID.TID 0000.0001) // Field Model Ro_surf (ini_masks_etc) at iteration          1
(PID.TID 0000.0001) // CMIN =          2.273736754432321E-13
(PID.TID 0000.0001) // CMAX =          2.273736754432321E-13
(PID.TID 0000.0001) // CINT =          0.000000000000000E+00
(PID.TID 0000.0001) // SYMBOLS (CMIN->CMAX): -abcdefghijklmnopqrstuvwxyz+
(PID.TID 0000.0001) //                  0.0: .
(PID.TID 0000.0001) // RANGE I (Lo:Hi:Step):(  -1:   7:   1)
(PID.TID 0000.0001) // RANGE J (Lo:Hi:Step):(   7:  -1:  -1)
(PID.TID 0000.0001) // RANGE K (Lo:Hi:Step):(   1:   1:   1)
(PID.TID 0000.0001) // =======================================================
(PID.TID 0000.0001) // =======================================================
(PID.TID 0000.0001) // END OF FIELD                                          =
(PID.TID 0000.0001) // =======================================================
(PID.TID 0000.0001) 
(PID.TID 0000.0001) // =======================================================
(PID.TID 0000.0001) // Field hFacC at iteration          1
(PID.TID 0000.0001) // CMIN =          1.000000000000000E+00
(PID.TID 0000.0001) // CMAX =          1.000000000000000E+00
(PID.TID 0000.0001) // CINT =          0.000000000000000E+00
(PID.TID 0000.0001) // SYMBOLS (CMIN->CMAX): -abcdefghijklmnopqrstuvwxyz+
(PID.TID 0000.0001) //                  0.0: .
(PID.TID 0000.0001) // RANGE I (Lo:Hi:Step):(  -1:   7:   1)
(PID.TID 0000.0001) // RANGE J (Lo:Hi:Step):(   7:  -1:  -1)
(PID.TID 0000.0001) // RANGE K (Lo:Hi:Step):(   1:   1:   1)
(PID.TID 0000.0001) // =======================================================
(PID.TID 0000.0001) // =======================================================
(PID.TID 0000.0001) // END OF FIELD                                          =
(PID.TID 0000.0001) // =======================================================
(PID.TID 0000.0001) 
(PID.TID 0000.0001) // =======================================================
(PID.TID 0000.0001) // Field hFacW at iteration          1
(PID.TID 0000.0001) // CMIN =          1.000000000000000E+00
(PID.TID 0000.0001) // CMAX =          1.000000000000000E+00
(PID.TID 0000.0001) // CINT =          0.000000000000000E+00
(PID.TID 0000.0001) // SYMBOLS (CMIN->CMAX): -abcdefghijklmnopqrstuvwxyz+
(PID.TID 0000.0001) //                  0.0: .
(PID.TID 0000.0001) // RANGE I (Lo:Hi:Step):(  -1:   7:   1)
(PID.TID 0000.0001) // RANGE J (Lo:Hi:Step):(   7:  -1:  -1)
(PID.TID 0000.0001) // RANGE K (Lo:Hi:Step):(   1:   1:   1)
(PID.TID 0000.0001) // =======================================================
(PID.TID 0000.0001) // =======================================================
(PID.TID 0000.0001) // END OF FIELD                                          =
(PID.TID 0000.0001) // =======================================================
(PID.TID 0000.0001) 
(PID.TID 0000.0001) // =======================================================
(PID.TID 0000.0001) // Field hFacS at iteration          1
(PID.TID 0000.0001) // CMIN =          1.000000000000000E+00
(PID.TID 0000.0001) // CMAX =          1.000000000000000E+00
(PID.TID 0000.0001) // CINT =          0.000000000000000E+00
(PID.TID 0000.0001) // SYMBOLS (CMIN->CMAX): -abcdefghijklmnopqrstuvwxyz+
(PID.TID 0000.0001) //                  0.0: .
(PID.TID 0000.0001) // RANGE I (Lo:Hi:Step):(  -1:   7:   1)
(PID.TID 0000.0001) // RANGE J (Lo:Hi:Step):(   7:  -1:  -1)
(PID.TID 0000.0001) // RANGE K (Lo:Hi:Step):(   1:   1:   1)
(PID.TID 0000.0001) // =======================================================
(PID.TID 0000.0001) // =======================================================
(PID.TID 0000.0001) // END OF FIELD                                          =
(PID.TID 0000.0001) // =======================================================
(PID.TID 0000.0001) 
(PID.TID 0000.0001) %MON surfExpanfCori_max           =  -1.0735540000000E-04
(PID.TID 0000.0001) %MON surfExpanfCori_min           =  -1.1783060000000E-04
(PID.TID 0000.0001) %MON surfExpanfCori_mean          =  -1.1259300000000E-04
(PID.TID 0000.0001) %MON surfExpanfCori_sd            =   3.7035424771427E-06
(PID.TID 0000.0001) %MON surfExpanfCoriG_max          =  -1.0866480000000E-04
(PID.TID 0000.0001) %MON surfExpanfCoriG_min          =  -1.1914000000000E-04
(PID.TID 0000.0001) %MON surfExpanfCoriG_mean         =  -1.1390240000000E-04
(PID.TID 0000.0001) %MON surfExpanfCoriG_sd           =   3.7035424771427E-06
(PID.TID 0000.0001) %MON surfExpanfCoriCos_max        =   0.0000000000000E+00
(PID.TID 0000.0001) %MON surfExpanfCoriCos_min        =   0.0000000000000E+00
(PID.TID 0000.0001) %MON surfExpanfCoriCos_mean       =   0.0000000000000E+00
(PID.TID 0000.0001) %MON surfExpanfCoriCos_sd         =   0.0000000000000E+00
(PID.TID 0000.0001) INI_CG2D: CG2D normalisation factor =  1.9999999999999996E-04
(PID.TID 0000.0001) 
                     ctrl_depth_ini: ctrl update R_low,
                                     adding the control vector.
(PID.TID 0000.0001)  MDSREADFIELD: opening file: xx_depth.0000000000.001.001.data
(PID.TID 0000.0001) // =======================================================
(PID.TID 0000.0001) // Field Model Ro_surf (update_masks_etc) at iteration          1
(PID.TID 0000.0001) // CMIN =          2.273736754432321E-13
(PID.TID 0000.0001) // CMAX =          2.273736754432321E-13
(PID.TID 0000.0001) // CINT =          0.000000000000000E+00
(PID.TID 0000.0001) // SYMBOLS (CMIN->CMAX): -abcdefghijklmnopqrstuvwxyz+
(PID.TID 0000.0001) //                  0.0: .
(PID.TID 0000.0001) // RANGE I (Lo:Hi:Step):(  -1:   7:   1)
(PID.TID 0000.0001) // RANGE J (Lo:Hi:Step):(   7:  -1:  -1)
(PID.TID 0000.0001) // RANGE K (Lo:Hi:Step):(   1:   1:   1)
(PID.TID 0000.0001) // =======================================================
(PID.TID 0000.0001) // =======================================================
(PID.TID 0000.0001) // END OF FIELD                                          =
(PID.TID 0000.0001) // =======================================================
(PID.TID 0000.0001) 
(PID.TID 0000.0001) // =======================================================
(PID.TID 0000.0001) // Field hFacC at iteration          1
(PID.TID 0000.0001) // CMIN =          1.000000000000000E+00
(PID.TID 0000.0001) // CMAX =          1.000000000000000E+00
(PID.TID 0000.0001) // CINT =          0.000000000000000E+00
(PID.TID 0000.0001) // SYMBOLS (CMIN->CMAX): -abcdefghijklmnopqrstuvwxyz+
(PID.TID 0000.0001) //                  0.0: .
(PID.TID 0000.0001) // RANGE I (Lo:Hi:Step):(  -1:   7:   1)
(PID.TID 0000.0001) // RANGE J (Lo:Hi:Step):(   7:  -1:  -1)
(PID.TID 0000.0001) // RANGE K (Lo:Hi:Step):(   1:   1:   1)
(PID.TID 0000.0001) // =======================================================
(PID.TID 0000.0001) // =======================================================
(PID.TID 0000.0001) // END OF FIELD                                          =
(PID.TID 0000.0001) // =======================================================
(PID.TID 0000.0001) 
(PID.TID 0000.0001) // =======================================================
(PID.TID 0000.0001) // Field hFacW at iteration          1
(PID.TID 0000.0001) // CMIN =          1.000000000000000E+00
(PID.TID 0000.0001) // CMAX =          1.000000000000000E+00
(PID.TID 0000.0001) // CINT =          0.000000000000000E+00
(PID.TID 0000.0001) // SYMBOLS (CMIN->CMAX): -abcdefghijklmnopqrstuvwxyz+
(PID.TID 0000.0001) //                  0.0: .
(PID.TID 0000.0001) // RANGE I (Lo:Hi:Step):(  -1:   7:   1)
(PID.TID 0000.0001) // RANGE J (Lo:Hi:Step):(   7:  -1:  -1)
(PID.TID 0000.0001) // RANGE K (Lo:Hi:Step):(   1:   1:   1)
(PID.TID 0000.0001) // =======================================================
(PID.TID 0000.0001) // =======================================================
(PID.TID 0000.0001) // END OF FIELD                                          =
(PID.TID 0000.0001) // =======================================================
(PID.TID 0000.0001) 
(PID.TID 0000.0001) // =======================================================
(PID.TID 0000.0001) // Field hFacS at iteration          1
(PID.TID 0000.0001) // CMIN =          1.000000000000000E+00
(PID.TID 0000.0001) // CMAX =          1.000000000000000E+00
(PID.TID 0000.0001) // CINT =          0.000000000000000E+00
(PID.TID 0000.0001) // SYMBOLS (CMIN->CMAX): -abcdefghijklmnopqrstuvwxyz+
(PID.TID 0000.0001) //                  0.0: .
(PID.TID 0000.0001) // RANGE I (Lo:Hi:Step):(  -1:   7:   1)
(PID.TID 0000.0001) // RANGE J (Lo:Hi:Step):(   7:  -1:  -1)
(PID.TID 0000.0001) // RANGE K (Lo:Hi:Step):(   1:   1:   1)
(PID.TID 0000.0001) // =======================================================
(PID.TID 0000.0001) // =======================================================
(PID.TID 0000.0001) // END OF FIELD                                          =
(PID.TID 0000.0001) // =======================================================
(PID.TID 0000.0001) 
(PID.TID 0000.0001) // =======================================================
(PID.TID 0000.0001) // Field Initial Temperature at iteration          1
(PID.TID 0000.0001) // CMIN =          4.000000000000000E+00
(PID.TID 0000.0001) // CMAX =          4.000000000000000E+00
(PID.TID 0000.0001) // CINT =          0.000000000000000E+00
(PID.TID 0000.0001) // SYMBOLS (CMIN->CMAX): -abcdefghijklmnopqrstuvwxyz+
(PID.TID 0000.0001) //                  0.0: .
(PID.TID 0000.0001) // RANGE I (Lo:Hi:Step):(   1:   5:   1)
(PID.TID 0000.0001) // RANGE J (Lo:Hi:Step):(   5:   1:  -1)
(PID.TID 0000.0001) // RANGE K (Lo:Hi:Step):(   1:   1:   1)
(PID.TID 0000.0001) // =======================================================
(PID.TID 0000.0001) // =======================================================
(PID.TID 0000.0001) // END OF FIELD                                          =
(PID.TID 0000.0001) // =======================================================
(PID.TID 0000.0001) 
(PID.TID 0000.0001) // =======================================================
(PID.TID 0000.0001) // Field Initial Salinity at iteration          1
(PID.TID 0000.0001) // CMIN =          3.500000000000000E+01
(PID.TID 0000.0001) // CMAX =          3.500000000000000E+01
(PID.TID 0000.0001) // CINT =          0.000000000000000E+00
(PID.TID 0000.0001) // SYMBOLS (CMIN->CMAX): -abcdefghijklmnopqrstuvwxyz+
(PID.TID 0000.0001) //                  0.0: .
(PID.TID 0000.0001) // RANGE I (Lo:Hi:Step):(   1:   5:   1)
(PID.TID 0000.0001) // RANGE J (Lo:Hi:Step):(   5:   1:  -1)
(PID.TID 0000.0001) // RANGE K (Lo:Hi:Step):(   1:   1:   1)
(PID.TID 0000.0001) // =======================================================
(PID.TID 0000.0001) // =======================================================
(PID.TID 0000.0001) // END OF FIELD                                          =
(PID.TID 0000.0001) // =======================================================
(PID.TID 0000.0001) 
(PID.TID 0000.0001) Start initial hydrostatic pressure computation
(PID.TID 0000.0001) Pressure is predetermined for buoyancyRelation OCEANIC
(PID.TID 0000.0001) 
(PID.TID 0000.0001)  MDSREADFIELD: opening global file: windx.sin_y
(PID.TID 0000.0001) // =======================================================
(PID.TID 0000.0001) // Model current state
(PID.TID 0000.0001) // =======================================================
(PID.TID 0000.0001) 
 cg2d: Sum(rhs),rhsMax =   0.00000000000000E+00  0.00000000000000E+00
 cg2d: Sum(rhs),rhsMax =   4.68375338513738E-16  2.62483626325265E-03
 cg2d: Sum(rhs),rhsMax =   6.47051856539349E-16  5.13362633360820E-03
 cg2d: Sum(rhs),rhsMax =   5.88504939225132E-16  7.16168459344610E-03
 cg2d: Sum(rhs),rhsMax =   5.88071258356138E-16  9.29466756111907E-03
 cg2d: Sum(rhs),rhsMax =   7.07767178198537E-16  1.15304356817032E-02
 cg2d: Sum(rhs),rhsMax =   4.34114549863196E-16  1.37809802379512E-02
 cg2d: Sum(rhs),rhsMax =   3.98986399474666E-16  1.60011247501267E-02
 cg2d: Sum(rhs),rhsMax =   1.87350135405495E-16  1.82027337737145E-02
 cg2d: Sum(rhs),rhsMax =   8.04911692853238E-16  2.04493560656067E-02
 cg2d: Sum(rhs),rhsMax =   1.15185638804860E-15  2.25706027484863E-02
 cg2d: Sum(rhs),rhsMax =   1.04083408558608E-15  2.45301656871352E-02
 cg2d: Sum(rhs),rhsMax =   8.60422844084496E-16  2.63097944049829E-02
 cg2d: Sum(rhs),rhsMax =   6.80011602582908E-16  2.79110496858377E-02
 cg2d: Sum(rhs),rhsMax =   8.88178419700125E-16  2.93538601990003E-02
 cg2d: Sum(rhs),rhsMax =   1.51267887105178E-15  3.06720438677199E-02
 cg2d: Sum(rhs),rhsMax =   1.65839564303383E-15  3.19067816133546E-02
 cg2d: Sum(rhs),rhsMax =   1.46410661372443E-15  3.30992667109273E-02
 cg2d: Sum(rhs),rhsMax =   1.06858966120171E-15  3.42837432248599E-02
 cg2d: Sum(rhs),rhsMax =   1.11022302462516E-15  3.54819650114998E-02
 cg2d: Sum(rhs),rhsMax =   1.22124532708767E-15  3.66998057705672E-02
 cg2d: Sum(rhs),rhsMax =   1.20736753927986E-15  3.79264044655997E-02
 cg2d: Sum(rhs),rhsMax =   1.23512311489549E-15  3.91358857436182E-02
 cg2d: Sum(rhs),rhsMax =   1.55431223447522E-15  4.02913638199359E-02
 cg2d: Sum(rhs),rhsMax =   6.93889390390723E-16  4.13506293493464E-02
 cg2d: Sum(rhs),rhsMax =   8.04911692853238E-16  4.22726605391741E-02
 cg2d: Sum(rhs),rhsMax =   3.60822483003176E-16  4.30239433855261E-02
 cg2d: Sum(rhs),rhsMax =  -2.49800180540660E-16  4.35835860736741E-02
 cg2d: Sum(rhs),rhsMax =  -4.99600361081320E-16  4.39463976906314E-02
 cg2d: Sum(rhs),rhsMax =   2.22044604925031E-16  4.41234512928027E-02
 cg2d: Sum(rhs),rhsMax =  -8.46545056276682E-16  4.41400960419557E-02
 cg2d: Sum(rhs),rhsMax =  -1.12410081243297E-15  4.40318239367120E-02
 cg2d: Sum(rhs),rhsMax =  -1.48492329543615E-15  4.38387395360136E-02
 cg2d: Sum(rhs),rhsMax =  -1.67921232474555E-15  4.54379569654745E-02
 cg2d: Sum(rhs),rhsMax =  -2.17881268582687E-15  4.77259351240167E-02
 cg2d: Sum(rhs),rhsMax =  -2.02615701994091E-15  4.99949953005955E-02
 cg2d: Sum(rhs),rhsMax =  -1.83186799063151E-15  5.22073356825293E-02
 cg2d: Sum(rhs),rhsMax =  -1.66533453693773E-15  5.43317165930225E-02
 cg2d: Sum(rhs),rhsMax =  -1.98452365651747E-15  5.63476445546874E-02
 cg2d: Sum(rhs),rhsMax =  -2.19269047363468E-15  5.82478259010946E-02
 cg2d: Sum(rhs),rhsMax =  -2.27595720048157E-15  6.00385239161018E-02
 cg2d: Sum(rhs),rhsMax =  -2.44249065417534E-15  6.17377941016155E-02
 cg2d: Sum(rhs),rhsMax =  -2.05391259555654E-15  6.33719194863042E-02
 cg2d: Sum(rhs),rhsMax =  -1.41553435639707E-15  6.49706573715337E-02
 cg2d: Sum(rhs),rhsMax =  -1.44328993201270E-15  6.65620867182505E-02
 cg2d: Sum(rhs),rhsMax =  -1.52655665885959E-15  6.81678824400200E-02
 cg2d: Sum(rhs),rhsMax =  -1.83186799063151E-15  6.97997408525929E-02
 cg2d: Sum(rhs),rhsMax =  -1.94289029309402E-15  7.14574679900351E-02
 cg2d: Sum(rhs),rhsMax =  -2.08166817117217E-15  7.31289640496599E-02
 cg2d: Sum(rhs),rhsMax =  -1.63757896132211E-15  7.47920412236907E-02
 cg2d: Sum(rhs),rhsMax =  -1.77635683940025E-15  7.64177416611498E-02
 cg2d: Sum(rhs),rhsMax =  -1.33226762955019E-15  7.79746110928970E-02
 cg2d: Sum(rhs),rhsMax =  -1.44328993201270E-15  7.94332560582895E-02
 cg2d: Sum(rhs),rhsMax =  -1.30451205393456E-15  8.07704838841646E-02
 cg2d: Sum(rhs),rhsMax =  -9.99200722162641E-16  8.19723994503118E-02
 cg2d: Sum(rhs),rhsMax =  -3.60822483003176E-16  8.30360030843276E-02
 cg2d: Sum(rhs),rhsMax =  -1.52655665885959E-16  8.39690760359387E-02
 cg2d: Sum(rhs),rhsMax =  -3.88578058618805E-16  8.47884158346033E-02
 cg2d: Sum(rhs),rhsMax =  -5.27355936696949E-16  8.55167466393387E-02
 cg2d: Sum(rhs),rhsMax =  -8.46545056276682E-16  8.61788334852433E-02
 cg2d: Sum(rhs),rhsMax =  -9.57567358739198E-16  8.67974394947215E-02
 cg2d: Sum(rhs),rhsMax =  -7.63278329429795E-16  8.73897660932124E-02
 cg2d: Sum(rhs),rhsMax =  -2.35922392732846E-16  8.79649138705329E-02
 cg2d: Sum(rhs),rhsMax =   1.38777878078145E-16  8.85227197552062E-02
 cg2d: Sum(rhs),rhsMax =   4.30211422042248E-16  8.90540992173363E-02
 cg2d: Sum(rhs),rhsMax =   5.96744875736022E-16  8.95427877690520E-02
 cg2d: Sum(rhs),rhsMax =   3.60822483003176E-16  8.99681682910704E-02
 cg2d: Sum(rhs),rhsMax =  -1.17961196366423E-16  9.03087170709733E-02
 cg2d: Sum(rhs),rhsMax =  -7.35522753814166E-16  9.05455209186904E-02
 cg2d: Sum(rhs),rhsMax =  -9.08995101411847E-16  9.06653200749368E-02
 cg2d: Sum(rhs),rhsMax =  -8.67361737988404E-16  9.06626162025160E-02
 cg2d: Sum(rhs),rhsMax =  -5.13478148889135E-16  9.05405394346870E-02
 cg2d: Sum(rhs),rhsMax =  -6.21031004399697E-16  9.03103697788821E-02
 cg2d: Sum(rhs),rhsMax =  -7.04297731246584E-16  8.99898238084465E-02
 cg2d: Sum(rhs),rhsMax =  -6.83481049534862E-16  8.96004115602696E-02
 cg2d: Sum(rhs),rhsMax =  -4.41595544853346E-16  8.91643083011529E-02
 cg2d: Sum(rhs),rhsMax =  -4.49293380277993E-16  8.87012488926422E-02
 cg2d: Sum(rhs),rhsMax =  -4.51028103753970E-16  8.82259310300371E-02
 cg2d: Sum(rhs),rhsMax =  -6.69603261727048E-16  8.77463152048053E-02
 cg2d: Sum(rhs),rhsMax =  -6.69603261727048E-16  8.72630540082627E-02
 cg2d: Sum(rhs),rhsMax =  -7.80625564189563E-16  8.67700990943363E-02
 cg2d: Sum(rhs),rhsMax =  -8.01442245901285E-16  8.62563505084224E-02
 cg2d: Sum(rhs),rhsMax =  -6.38378239159465E-16  8.57080573213116E-02
 cg2d: Sum(rhs),rhsMax =  -6.40112962635442E-16  8.51115719864464E-02
 cg2d: Sum(rhs),rhsMax =  -8.67361737988404E-16  8.44560173339834E-02
 cg2d: Sum(rhs),rhsMax =  -1.11716191852906E-15  8.37354496157311E-02
 cg2d: Sum(rhs),rhsMax =  -7.68482499857726E-16  8.29501890753024E-02
 cg2d: Sum(rhs),rhsMax =  -7.86697096355482E-16  8.21071273272142E-02
 cg2d: Sum(rhs),rhsMax =  -1.08333481074752E-15  8.12189865576692E-02
 cg2d: Sum(rhs),rhsMax =  -1.32099192695634E-15  8.03026723796157E-02
 cg2d: Sum(rhs),rhsMax =  -1.23338839141951E-15  7.93770027557591E-02
 cg2d: Sum(rhs),rhsMax =  -1.54390389361936E-15  7.84601869978429E-02
 cg2d: Sum(rhs),rhsMax =  -1.41726907987305E-15  7.75674576325884E-02
 cg2d: Sum(rhs),rhsMax =  -1.12063136548102E-15  7.67092213825332E-02
 cg2d: Sum(rhs),rhsMax =  -5.75928194024300E-16  7.58900023140395E-02
 cg2d: Sum(rhs),rhsMax =  -2.91433543964104E-16  7.51083178095839E-02
 cg2d: Sum(rhs),rhsMax =  -1.38777878078145E-16  7.43574789043781E-02
 cg2d: Sum(rhs),rhsMax =  -3.53883589099269E-16  7.36271641625887E-02
 cg2d: Sum(rhs),rhsMax =  -3.40005801291454E-16  7.29055016609936E-02
 cg2d: Sum(rhs),rhsMax =  -4.16333634234434E-16  7.21813227810596E-02
 --> objf_test(bi,bj)   = -0.849803575078752E+00
 --> objf_tracer(bi,bj) =  0.000000000000000E+00
 --> objf_atl(bi,bj)    =  0.000000000000000E+00
  local fc = -0.849803575078752E+00
 global fc = -0.849803575078752E+00
(PID.TID 0000.0001)  MDSREADFIELD: opening file: xx_depth.0000000000.001.001.data
 grad-res -------------------------------
 grad-res     0   15    5    4    1   -.849803598E+00 -.849803621E+00 -.849803575E+00
 grad-res     0   15   15   15   20   -.228653698E-03 -.228651543E-03 0.942528996E-05
(PID.TID 0000.0001)       precision_grdchk_result ADM    -8.49803597943908E-01    -2.28653698382207E-04
 ph-grd  ierr ---------------------------
 ph-grd  ierr =  0, icomp =  15, ichknum =  15
(PID.TID 0000.0001)  MDSREADFIELD: opening file: adxx_depth.0000000000.001.001.data
(PID.TID 0000.0001)  MDSREADFIELD: opening file: xx_depth.0000000000.001.001.data
(PID.TID 0000.0001)  MDSREADFIELD: opening global file: walls.bigRidge
(PID.TID 0000.0001) // =======================================================
(PID.TID 0000.0001) // Field Bottom depths (ini_depths) at iteration          1
(PID.TID 0000.0001) // CMIN =         -5.000000000000000E+03
(PID.TID 0000.0001) // CMAX =         -2.000000000000000E+03
(PID.TID 0000.0001) // CINT =          1.111111111111111E+02
(PID.TID 0000.0001) // SYMBOLS (CMIN->CMAX): -abcdefghijklmnopqrstuvwxyz+
(PID.TID 0000.0001) //                  0.0: .
(PID.TID 0000.0001) // RANGE I (Lo:Hi:Step):(  -1:   7:   1)
(PID.TID 0000.0001) // RANGE J (Lo:Hi:Step):(   7:  -1:  -1)
(PID.TID 0000.0001) // RANGE K (Lo:Hi:Step):(   1:   1:   1)
(PID.TID 0000.0001) // =======================================================
(PID.TID 0000.0001) K =   1
(PID.TID 0000.0001) //
(PID.TID 0000.0001) // |--J--|*01234567
(PID.TID 0000.0001) //      7 ----+----
(PID.TID 0000.0001) //      6 .........
(PID.TID 0000.0001) //      5 ----+----
(PID.TID 0000.0001) //      4 ----+----
(PID.TID 0000.0001) //      3 ----+----
(PID.TID 0000.0001) //      2 ----+----
(PID.TID 0000.0001) //      1 .........
(PID.TID 0000.0001) //      0 ----+----
(PID.TID 0000.0001) //     -1 ----+----
(PID.TID 0000.0001) // =======================================================
(PID.TID 0000.0001) // END OF FIELD                                          =
(PID.TID 0000.0001) // =======================================================
(PID.TID 0000.0001) 
(PID.TID 0000.0001) // =======================================================
(PID.TID 0000.0001) // Field Model R_low (ini_masks_etc) at iteration          1
(PID.TID 0000.0001) // CMIN =         -5.000000000000000E+03
(PID.TID 0000.0001) // CMAX =         -2.000000000000000E+03
(PID.TID 0000.0001) // CINT =          1.111111111111111E+02
(PID.TID 0000.0001) // SYMBOLS (CMIN->CMAX): -abcdefghijklmnopqrstuvwxyz+
(PID.TID 0000.0001) //                  0.0: .
(PID.TID 0000.0001) // RANGE I (Lo:Hi:Step):(  -1:   7:   1)
(PID.TID 0000.0001) // RANGE J (Lo:Hi:Step):(   7:  -1:  -1)
(PID.TID 0000.0001) // RANGE K (Lo:Hi:Step):(   1:   1:   1)
(PID.TID 0000.0001) // =======================================================
(PID.TID 0000.0001) K =   1
(PID.TID 0000.0001) //
(PID.TID 0000.0001) // |--J--|*01234567
(PID.TID 0000.0001) //      7 ----+----
(PID.TID 0000.0001) //      6 .........
(PID.TID 0000.0001) //      5 ----+----
(PID.TID 0000.0001) //      4 ----+----
(PID.TID 0000.0001) //      3 ----+----
(PID.TID 0000.0001) //      2 ----+----
(PID.TID 0000.0001) //      1 .........
(PID.TID 0000.0001) //      0 ----+----
(PID.TID 0000.0001) //     -1 ----+----
(PID.TID 0000.0001) // =======================================================
(PID.TID 0000.0001) // END OF FIELD                                          =
(PID.TID 0000.0001) // =======================================================
(PID.TID 0000.0001) 
(PID.TID 0000.0001) // =======================================================
(PID.TID 0000.0001) // Field Model Ro_surf (ini_masks_etc) at iteration          1
(PID.TID 0000.0001) // CMIN =          2.273736754432321E-13
(PID.TID 0000.0001) // CMAX =          2.273736754432321E-13
(PID.TID 0000.0001) // CINT =          0.000000000000000E+00
(PID.TID 0000.0001) // SYMBOLS (CMIN->CMAX): -abcdefghijklmnopqrstuvwxyz+
(PID.TID 0000.0001) //                  0.0: .
(PID.TID 0000.0001) // RANGE I (Lo:Hi:Step):(  -1:   7:   1)
(PID.TID 0000.0001) // RANGE J (Lo:Hi:Step):(   7:  -1:  -1)
(PID.TID 0000.0001) // RANGE K (Lo:Hi:Step):(   1:   1:   1)
(PID.TID 0000.0001) // =======================================================
(PID.TID 0000.0001) // =======================================================
(PID.TID 0000.0001) // END OF FIELD                                          =
(PID.TID 0000.0001) // =======================================================
(PID.TID 0000.0001) 
(PID.TID 0000.0001) // =======================================================
(PID.TID 0000.0001) // Field hFacC at iteration          1
(PID.TID 0000.0001) // CMIN =          1.000000000000000E+00
(PID.TID 0000.0001) // CMAX =          1.000000000000000E+00
(PID.TID 0000.0001) // CINT =          0.000000000000000E+00
(PID.TID 0000.0001) // SYMBOLS (CMIN->CMAX): -abcdefghijklmnopqrstuvwxyz+
(PID.TID 0000.0001) //                  0.0: .
(PID.TID 0000.0001) // RANGE I (Lo:Hi:Step):(  -1:   7:   1)
(PID.TID 0000.0001) // RANGE J (Lo:Hi:Step):(   7:  -1:  -1)
(PID.TID 0000.0001) // RANGE K (Lo:Hi:Step):(   1:   1:   1)
(PID.TID 0000.0001) // =======================================================
(PID.TID 0000.0001) // =======================================================
(PID.TID 0000.0001) // END OF FIELD                                          =
(PID.TID 0000.0001) // =======================================================
(PID.TID 0000.0001) 
(PID.TID 0000.0001) // =======================================================
(PID.TID 0000.0001) // Field hFacW at iteration          1
(PID.TID 0000.0001) // CMIN =          1.000000000000000E+00
(PID.TID 0000.0001) // CMAX =          1.000000000000000E+00
(PID.TID 0000.0001) // CINT =          0.000000000000000E+00
(PID.TID 0000.0001) // SYMBOLS (CMIN->CMAX): -abcdefghijklmnopqrstuvwxyz+
(PID.TID 0000.0001) //                  0.0: .
(PID.TID 0000.0001) // RANGE I (Lo:Hi:Step):(  -1:   7:   1)
(PID.TID 0000.0001) // RANGE J (Lo:Hi:Step):(   7:  -1:  -1)
(PID.TID 0000.0001) // RANGE K (Lo:Hi:Step):(   1:   1:   1)
(PID.TID 0000.0001) // =======================================================
(PID.TID 0000.0001) // =======================================================
(PID.TID 0000.0001) // END OF FIELD                                          =
(PID.TID 0000.0001) // =======================================================
(PID.TID 0000.0001) 
(PID.TID 0000.0001) // =======================================================
(PID.TID 0000.0001) // Field hFacS at iteration          1
(PID.TID 0000.0001) // CMIN =          1.000000000000000E+00
(PID.TID 0000.0001) // CMAX =          1.000000000000000E+00
(PID.TID 0000.0001) // CINT =          0.000000000000000E+00
(PID.TID 0000.0001) // SYMBOLS (CMIN->CMAX): -abcdefghijklmnopqrstuvwxyz+
(PID.TID 0000.0001) //                  0.0: .
(PID.TID 0000.0001) // RANGE I (Lo:Hi:Step):(  -1:   7:   1)
(PID.TID 0000.0001) // RANGE J (Lo:Hi:Step):(   7:  -1:  -1)
(PID.TID 0000.0001) // RANGE K (Lo:Hi:Step):(   1:   1:   1)
(PID.TID 0000.0001) // =======================================================
(PID.TID 0000.0001) // =======================================================
(PID.TID 0000.0001) // END OF FIELD                                          =
(PID.TID 0000.0001) // =======================================================
(PID.TID 0000.0001) 
(PID.TID 0000.0001) %MON surfExpanfCori_max           =  -1.0735540000000E-04
(PID.TID 0000.0001) %MON surfExpanfCori_min           =  -1.1783060000000E-04
(PID.TID 0000.0001) %MON surfExpanfCori_mean          =  -1.1259300000000E-04
(PID.TID 0000.0001) %MON surfExpanfCori_sd            =   3.7035424771427E-06
(PID.TID 0000.0001) %MON surfExpanfCoriG_max          =  -1.0866480000000E-04
(PID.TID 0000.0001) %MON surfExpanfCoriG_min          =  -1.1914000000000E-04
(PID.TID 0000.0001) %MON surfExpanfCoriG_mean         =  -1.1390240000000E-04
(PID.TID 0000.0001) %MON surfExpanfCoriG_sd           =   3.7035424771427E-06
(PID.TID 0000.0001) %MON surfExpanfCoriCos_max        =   0.0000000000000E+00
(PID.TID 0000.0001) %MON surfExpanfCoriCos_min        =   0.0000000000000E+00
(PID.TID 0000.0001) %MON surfExpanfCoriCos_mean       =   0.0000000000000E+00
(PID.TID 0000.0001) %MON surfExpanfCoriCos_sd         =   0.0000000000000E+00
(PID.TID 0000.0001) INI_CG2D: CG2D normalisation factor =  1.9999999999999996E-04
(PID.TID 0000.0001) 
                     ctrl_depth_ini: ctrl update R_low,
                                     adding the control vector.
(PID.TID 0000.0001)  MDSREADFIELD: opening file: xx_depth.0000000000.001.001.data
(PID.TID 0000.0001) // =======================================================
(PID.TID 0000.0001) // Field Model Ro_surf (update_masks_etc) at iteration          1
(PID.TID 0000.0001) // CMIN =          2.273736754432321E-13
(PID.TID 0000.0001) // CMAX =          2.273736754432321E-13
(PID.TID 0000.0001) // CINT =          0.000000000000000E+00
(PID.TID 0000.0001) // SYMBOLS (CMIN->CMAX): -abcdefghijklmnopqrstuvwxyz+
(PID.TID 0000.0001) //                  0.0: .
(PID.TID 0000.0001) // RANGE I (Lo:Hi:Step):(  -1:   7:   1)
(PID.TID 0000.0001) // RANGE J (Lo:Hi:Step):(   7:  -1:  -1)
(PID.TID 0000.0001) // RANGE K (Lo:Hi:Step):(   1:   1:   1)
(PID.TID 0000.0001) // =======================================================
(PID.TID 0000.0001) // =======================================================
(PID.TID 0000.0001) // END OF FIELD                                          =
(PID.TID 0000.0001) // =======================================================
(PID.TID 0000.0001) 
(PID.TID 0000.0001) // =======================================================
(PID.TID 0000.0001) // Field hFacC at iteration          1
(PID.TID 0000.0001) // CMIN =          1.000000000000000E+00
(PID.TID 0000.0001) // CMAX =          1.000000000000000E+00
(PID.TID 0000.0001) // CINT =          0.000000000000000E+00
(PID.TID 0000.0001) // SYMBOLS (CMIN->CMAX): -abcdefghijklmnopqrstuvwxyz+
(PID.TID 0000.0001) //                  0.0: .
(PID.TID 0000.0001) // RANGE I (Lo:Hi:Step):(  -1:   7:   1)
(PID.TID 0000.0001) // RANGE J (Lo:Hi:Step):(   7:  -1:  -1)
(PID.TID 0000.0001) // RANGE K (Lo:Hi:Step):(   1:   1:   1)
(PID.TID 0000.0001) // =======================================================
(PID.TID 0000.0001) // =======================================================
(PID.TID 0000.0001) // END OF FIELD                                          =
(PID.TID 0000.0001) // =======================================================
(PID.TID 0000.0001) 
(PID.TID 0000.0001) // =======================================================
(PID.TID 0000.0001) // Field hFacW at iteration          1
(PID.TID 0000.0001) // CMIN =          1.000000000000000E+00
(PID.TID 0000.0001) // CMAX =          1.000000000000000E+00
(PID.TID 0000.0001) // CINT =          0.000000000000000E+00
(PID.TID 0000.0001) // SYMBOLS (CMIN->CMAX): -abcdefghijklmnopqrstuvwxyz+
(PID.TID 0000.0001) //                  0.0: .
(PID.TID 0000.0001) // RANGE I (Lo:Hi:Step):(  -1:   7:   1)
(PID.TID 0000.0001) // RANGE J (Lo:Hi:Step):(   7:  -1:  -1)
(PID.TID 0000.0001) // RANGE K (Lo:Hi:Step):(   1:   1:   1)
(PID.TID 0000.0001) // =======================================================
(PID.TID 0000.0001) // =======================================================
(PID.TID 0000.0001) // END OF FIELD                                          =
(PID.TID 0000.0001) // =======================================================
(PID.TID 0000.0001) 
(PID.TID 0000.0001) // =======================================================
(PID.TID 0000.0001) // Field hFacS at iteration          1
(PID.TID 0000.0001) // CMIN =          1.000000000000000E+00
(PID.TID 0000.0001) // CMAX =          1.000000000000000E+00
(PID.TID 0000.0001) // CINT =          0.000000000000000E+00
(PID.TID 0000.0001) // SYMBOLS (CMIN->CMAX): -abcdefghijklmnopqrstuvwxyz+
(PID.TID 0000.0001) //                  0.0: .
(PID.TID 0000.0001) // RANGE I (Lo:Hi:Step):(  -1:   7:   1)
(PID.TID 0000.0001) // RANGE J (Lo:Hi:Step):(   7:  -1:  -1)
(PID.TID 0000.0001) // RANGE K (Lo:Hi:Step):(   1:   1:   1)
(PID.TID 0000.0001) // =======================================================
(PID.TID 0000.0001) // =======================================================
(PID.TID 0000.0001) // END OF FIELD                                          =
(PID.TID 0000.0001) // =======================================================
(PID.TID 0000.0001) 
(PID.TID 0000.0001) // =======================================================
(PID.TID 0000.0001) // Field Initial Temperature at iteration          1
(PID.TID 0000.0001) // CMIN =          4.000000000000000E+00
(PID.TID 0000.0001) // CMAX =          4.000000000000000E+00
(PID.TID 0000.0001) // CINT =          0.000000000000000E+00
(PID.TID 0000.0001) // SYMBOLS (CMIN->CMAX): -abcdefghijklmnopqrstuvwxyz+
(PID.TID 0000.0001) //                  0.0: .
(PID.TID 0000.0001) // RANGE I (Lo:Hi:Step):(   1:   5:   1)
(PID.TID 0000.0001) // RANGE J (Lo:Hi:Step):(   5:   1:  -1)
(PID.TID 0000.0001) // RANGE K (Lo:Hi:Step):(   1:   1:   1)
(PID.TID 0000.0001) // =======================================================
(PID.TID 0000.0001) // =======================================================
(PID.TID 0000.0001) // END OF FIELD                                          =
(PID.TID 0000.0001) // =======================================================
(PID.TID 0000.0001) 
(PID.TID 0000.0001) // =======================================================
(PID.TID 0000.0001) // Field Initial Salinity at iteration          1
(PID.TID 0000.0001) // CMIN =          3.500000000000000E+01
(PID.TID 0000.0001) // CMAX =          3.500000000000000E+01
(PID.TID 0000.0001) // CINT =          0.000000000000000E+00
(PID.TID 0000.0001) // SYMBOLS (CMIN->CMAX): -abcdefghijklmnopqrstuvwxyz+
(PID.TID 0000.0001) //                  0.0: .
(PID.TID 0000.0001) // RANGE I (Lo:Hi:Step):(   1:   5:   1)
(PID.TID 0000.0001) // RANGE J (Lo:Hi:Step):(   5:   1:  -1)
(PID.TID 0000.0001) // RANGE K (Lo:Hi:Step):(   1:   1:   1)
(PID.TID 0000.0001) // =======================================================
(PID.TID 0000.0001) // =======================================================
(PID.TID 0000.0001) // END OF FIELD                                          =
(PID.TID 0000.0001) // =======================================================
(PID.TID 0000.0001) 
(PID.TID 0000.0001) Start initial hydrostatic pressure computation
(PID.TID 0000.0001) Pressure is predetermined for buoyancyRelation OCEANIC
(PID.TID 0000.0001) 
(PID.TID 0000.0001)  MDSREADFIELD: opening global file: windx.sin_y
(PID.TID 0000.0001) // =======================================================
(PID.TID 0000.0001) // Model current state
(PID.TID 0000.0001) // =======================================================
(PID.TID 0000.0001) 
 cg2d: Sum(rhs),rhsMax =   0.00000000000000E+00  0.00000000000000E+00
 cg2d: Sum(rhs),rhsMax =   4.68375338513738E-16  2.62483626325265E-03
 cg2d: Sum(rhs),rhsMax =   6.52256026967279E-16  5.13362633360820E-03
 cg2d: Sum(rhs),rhsMax =   2.68882138776405E-16  7.16168459264420E-03
 cg2d: Sum(rhs),rhsMax =   5.87203896618149E-16  9.29466755946726E-03
 cg2d: Sum(rhs),rhsMax =   1.10675357767320E-15  1.15304356791071E-02
 cg2d: Sum(rhs),rhsMax =   8.35703034551827E-16  1.37809802345635E-02
 cg2d: Sum(rhs),rhsMax =   7.00828284294630E-16  1.60011247459566E-02
 cg2d: Sum(rhs),rhsMax =   1.11022302462516E-16  1.82027337930619E-02
 cg2d: Sum(rhs),rhsMax =   1.80411241501588E-16  2.04493560895542E-02
 cg2d: Sum(rhs),rhsMax =   0.00000000000000E+00  2.25706027769432E-02
 cg2d: Sum(rhs),rhsMax =  -2.63677968348475E-16  2.45301657199467E-02
 cg2d: Sum(rhs),rhsMax =  -7.49400541621981E-16  2.63097944420346E-02
 cg2d: Sum(rhs),rhsMax =  -9.29811783123569E-16  2.79110497271522E-02
 cg2d: Sum(rhs),rhsMax =  -1.13103970633688E-15  2.93538602448155E-02
 cg2d: Sum(rhs),rhsMax =  -9.15933995315754E-16  3.06720439185362E-02
 cg2d: Sum(rhs),rhsMax =  -6.45317133063372E-16  3.19067816699437E-02
 cg2d: Sum(rhs),rhsMax =  -9.85322934354826E-16  3.30992667743036E-02
 cg2d: Sum(rhs),rhsMax =  -6.93889390390723E-16  3.42837432962164E-02
 cg2d: Sum(rhs),rhsMax =  -2.35922392732846E-16  3.54819650921220E-02
 cg2d: Sum(rhs),rhsMax =   0.00000000000000E+00  3.66998058617356E-02
 cg2d: Sum(rhs),rhsMax =   4.09394740330526E-16  3.79264045684972E-02
 cg2d: Sum(rhs),rhsMax =   5.55111512312578E-16  3.91358858592550E-02
 cg2d: Sum(rhs),rhsMax =   4.44089209850063E-16  4.02913639491026E-02
 cg2d: Sum(rhs),rhsMax =   1.24900090270330E-16  4.13506294926004E-02
 cg2d: Sum(rhs),rhsMax =   6.80011602582908E-16  4.22726606968603E-02
 cg2d: Sum(rhs),rhsMax =   4.99600361081320E-16  4.30239435578253E-02
 cg2d: Sum(rhs),rhsMax =   7.49400541621981E-16  4.35835862606713E-02
 cg2d: Sum(rhs),rhsMax =   7.77156117237610E-16  4.39463978923907E-02
 cg2d: Sum(rhs),rhsMax =   7.21644966006352E-16  4.41234515094364E-02
 cg2d: Sum(rhs),rhsMax =  -8.32667268468867E-17  4.41400962736752E-02
 cg2d: Sum(rhs),rhsMax =   0.00000000000000E+00  4.40318241838531E-02
 cg2d: Sum(rhs),rhsMax =   5.82867087928207E-16  4.38387397990318E-02
 cg2d: Sum(rhs),rhsMax =   1.38777878078145E-17  4.54379563996662E-02
 cg2d: Sum(rhs),rhsMax =  -3.33066907387547E-16  4.77259345403538E-02
 cg2d: Sum(rhs),rhsMax =  -5.55111512312578E-17  4.99949946993890E-02
 cg2d: Sum(rhs),rhsMax =   4.16333634234434E-16  5.22073350654508E-02
 cg2d: Sum(rhs),rhsMax =   1.47104550762833E-15  5.43317159630916E-02
 cg2d: Sum(rhs),rhsMax =   1.54043444666740E-15  5.63476439160678E-02
 cg2d: Sum(rhs),rhsMax =   1.69309011255336E-15  5.82478252587338E-02
 cg2d: Sum(rhs),rhsMax =   1.05471187339390E-15  6.00385232752756E-02
 cg2d: Sum(rhs),rhsMax =   1.02695629777827E-15  6.17377934674489E-02
 cg2d: Sum(rhs),rhsMax =   1.33226762955019E-15  6.33719188633441E-02
 cg2d: Sum(rhs),rhsMax =   1.47104550762833E-15  6.49706567634368E-02
 cg2d: Sum(rhs),rhsMax =   1.91513471747840E-15  6.65620861276306E-02
 cg2d: Sum(rhs),rhsMax =   1.83186799063151E-15  6.81678818684731E-02
 cg2d: Sum(rhs),rhsMax =   2.41473507855972E-15  6.97997403008894E-02
 cg2d: Sum(rhs),rhsMax =   2.05391259555654E-15  7.14574674584418E-02
 cg2d: Sum(rhs),rhsMax =   1.52655665885959E-15  7.31289635383372E-02
 cg2d: Sum(rhs),rhsMax =   1.58206781009085E-15  7.47920407330991E-02
 cg2d: Sum(rhs),rhsMax =   1.77635683940025E-15  7.64177411923983E-02
 cg2d: Sum(rhs),rhsMax =   2.35922392732846E-15  7.79746106479809E-02
 cg2d: Sum(rhs),rhsMax =   2.69229083471600E-15  7.94332556401816E-02
 cg2d: Sum(rhs),rhsMax =   2.91433543964104E-15  8.07704834967453E-02
 cg2d: Sum(rhs),rhsMax =   3.30291349825984E-15  8.19723990981554E-02
 cg2d: Sum(rhs),rhsMax =   3.71924713249427E-15  8.30360027723772E-02
 cg2d: Sum(rhs),rhsMax =   3.89965837399586E-15  8.39690757691230E-02
 cg2d: Sum(rhs),rhsMax =   3.58046925441613E-15  8.47884156174542E-02
 cg2d: Sum(rhs),rhsMax =   4.17721413015215E-15  8.55167464756678E-02
 cg2d: Sum(rhs),rhsMax =   3.62210261783957E-15  8.61788333779251E-02
 cg2d: Sum(rhs),rhsMax =   3.13638004456607E-15  8.67974394456114E-02
 cg2d: Sum(rhs),rhsMax =   3.20576898360514E-15  8.73897661032076E-02
 cg2d: Sum(rhs),rhsMax =   3.12250225675825E-15  8.79649139397618E-02
 cg2d: Sum(rhs),rhsMax =   3.48332473976143E-15  8.85227198833115E-02
 cg2d: Sum(rhs),rhsMax =   3.60822483003176E-15  8.90540994038041E-02
 cg2d: Sum(rhs),rhsMax =   3.51108031537706E-15  8.95427880135331E-02
 cg2d: Sum(rhs),rhsMax =   3.60822483003176E-15  8.99681685936444E-02
 cg2d: Sum(rhs),rhsMax =   3.54577478489659E-15  9.03087174323140E-02
 cg2d: Sum(rhs),rhsMax =   3.42087469462626E-15  9.05455213401099E-02
 cg2d: Sum(rhs),rhsMax =   3.00454106039183E-15  9.06653205583043E-02
 cg2d: Sum(rhs),rhsMax =   2.85188539450587E-15  9.06626167500666E-02
 cg2d: Sum(rhs),rhsMax =   2.47024622979097E-15  9.05405400487539E-02
 cg2d: Sum(rhs),rhsMax =   2.85188539450587E-15  9.03103704615956E-02
 cg2d: Sum(rhs),rhsMax =   2.43555176027144E-15  8.99898245614456E-02
 cg2d: Sum(rhs),rhsMax =   1.64972202565394E-15  8.96004123844746E-02
 cg2d: Sum(rhs),rhsMax =   1.74838442335012E-15  8.91643091966266E-02
 cg2d: Sum(rhs),rhsMax =   1.36002320516582E-15  8.87012498585656E-02
 cg2d: Sum(rhs),rhsMax =   1.05471187339390E-15  8.82259320647932E-02
 cg2d: Sum(rhs),rhsMax =   1.17267306976032E-15  8.77463163061608E-02
 cg2d: Sum(rhs),rhsMax =   1.22124532708767E-15  8.72630551736126E-02
 cg2d: Sum(rhs),rhsMax =   9.40220123979429E-16  8.67701003209734E-02
 cg2d: Sum(rhs),rhsMax =   8.77770078844264E-16  8.62563517937902E-02
 cg2d: Sum(rhs),rhsMax =   9.47159017883337E-16  8.57080586631991E-02
 cg2d: Sum(rhs),rhsMax =   8.67361737988404E-16  8.51115733831012E-02
 cg2d: Sum(rhs),rhsMax =   9.05525654459893E-16  8.44560187841247E-02
 cg2d: Sum(rhs),rhsMax =   8.96852037080009E-16  8.37354511184666E-02
 cg2d: Sum(rhs),rhsMax =   9.66240976119082E-16  8.29501906299643E-02
 cg2d: Sum(rhs),rhsMax =   1.27328703136698E-15  8.21071289331437E-02
 cg2d: Sum(rhs),rhsMax =   1.22991894446756E-15  8.12189882139856E-02
 cg2d: Sum(rhs),rhsMax =   6.88685219962792E-16  8.03026740850074E-02
 cg2d: Sum(rhs),rhsMax =   8.29197821516914E-16  7.93770045083287E-02
 cg2d: Sum(rhs),rhsMax =   3.53883589099269E-16  7.84601887950321E-02
 cg2d: Sum(rhs),rhsMax =   3.78169717762944E-16  7.75674594711903E-02
 cg2d: Sum(rhs),rhsMax =   9.81853487402873E-16  7.67092232587907E-02
 cg2d: Sum(rhs),rhsMax =   6.73072708679001E-16  7.58900042238127E-02
 cg2d: Sum(rhs),rhsMax =   5.13478148889135E-16  7.51083197485600E-02
 cg2d: Sum(rhs),rhsMax =   6.24500451351651E-16  7.43574808682890E-02
 cg2d: Sum(rhs),rhsMax =   6.31439345255558E-16  7.36271661474063E-02
 cg2d: Sum(rhs),rhsMax =   1.28369537222284E-15  7.29055036630726E-02
 cg2d: Sum(rhs),rhsMax =   1.17267306976032E-15  7.21813247972091E-02
 --> objf_test(bi,bj)   = -0.849803602122461E+00
 --> objf_tracer(bi,bj) =  0.000000000000000E+00
 --> objf_atl(bi,bj)    =  0.000000000000000E+00
  local fc = -0.849803602122461E+00
 global fc = -0.849803602122461E+00
 ph-check fcpertplus =  -0.849803602
(PID.TID 0000.0001)  MDSREADFIELD: opening file: xx_depth.0000000000.001.001.data
 ph-check fcpertminus =  -0.849803598
(PID.TID 0000.0001)  MDSREADFIELD: opening file: xx_depth.0000000000.001.001.data
(PID.TID 0000.0001)  MDSREADFIELD: opening global file: walls.bigRidge
(PID.TID 0000.0001) // =======================================================
(PID.TID 0000.0001) // Field Bottom depths (ini_depths) at iteration          1
(PID.TID 0000.0001) // CMIN =         -5.000000000000000E+03
(PID.TID 0000.0001) // CMAX =         -2.000000000000000E+03
(PID.TID 0000.0001) // CINT =          1.111111111111111E+02
(PID.TID 0000.0001) // SYMBOLS (CMIN->CMAX): -abcdefghijklmnopqrstuvwxyz+
(PID.TID 0000.0001) //                  0.0: .
(PID.TID 0000.0001) // RANGE I (Lo:Hi:Step):(  -1:   7:   1)
(PID.TID 0000.0001) // RANGE J (Lo:Hi:Step):(   7:  -1:  -1)
(PID.TID 0000.0001) // RANGE K (Lo:Hi:Step):(   1:   1:   1)
(PID.TID 0000.0001) // =======================================================
(PID.TID 0000.0001) K =   1
(PID.TID 0000.0001) //
(PID.TID 0000.0001) // |--J--|*01234567
(PID.TID 0000.0001) //      7 ----+----
(PID.TID 0000.0001) //      6 .........
(PID.TID 0000.0001) //      5 ----+----
(PID.TID 0000.0001) //      4 ----+----
(PID.TID 0000.0001) //      3 ----+----
(PID.TID 0000.0001) //      2 ----+----
(PID.TID 0000.0001) //      1 .........
(PID.TID 0000.0001) //      0 ----+----
(PID.TID 0000.0001) //     -1 ----+----
(PID.TID 0000.0001) // =======================================================
(PID.TID 0000.0001) // END OF FIELD                                          =
(PID.TID 0000.0001) // =======================================================
(PID.TID 0000.0001) 
(PID.TID 0000.0001) // =======================================================
(PID.TID 0000.0001) // Field Model R_low (ini_masks_etc) at iteration          1
(PID.TID 0000.0001) // CMIN =         -5.000000000000000E+03
(PID.TID 0000.0001) // CMAX =         -2.000000000000000E+03
(PID.TID 0000.0001) // CINT =          1.111111111111111E+02
(PID.TID 0000.0001) // SYMBOLS (CMIN->CMAX): -abcdefghijklmnopqrstuvwxyz+
(PID.TID 0000.0001) //                  0.0: .
(PID.TID 0000.0001) // RANGE I (Lo:Hi:Step):(  -1:   7:   1)
(PID.TID 0000.0001) // RANGE J (Lo:Hi:Step):(   7:  -1:  -1)
(PID.TID 0000.0001) // RANGE K (Lo:Hi:Step):(   1:   1:   1)
(PID.TID 0000.0001) // =======================================================
(PID.TID 0000.0001) K =   1
(PID.TID 0000.0001) //
(PID.TID 0000.0001) // |--J--|*01234567
(PID.TID 0000.0001) //      7 ----+----
(PID.TID 0000.0001) //      6 .........
(PID.TID 0000.0001) //      5 ----+----
(PID.TID 0000.0001) //      4 ----+----
(PID.TID 0000.0001) //      3 ----+----
(PID.TID 0000.0001) //      2 ----+----
(PID.TID 0000.0001) //      1 .........
(PID.TID 0000.0001) //      0 ----+----
(PID.TID 0000.0001) //     -1 ----+----
(PID.TID 0000.0001) // =======================================================
(PID.TID 0000.0001) // END OF FIELD                                          =
(PID.TID 0000.0001) // =======================================================
(PID.TID 0000.0001) 
(PID.TID 0000.0001) // =======================================================
(PID.TID 0000.0001) // Field Model Ro_surf (ini_masks_etc) at iteration          1
(PID.TID 0000.0001) // CMIN =          2.273736754432321E-13
(PID.TID 0000.0001) // CMAX =          2.273736754432321E-13
(PID.TID 0000.0001) // CINT =          0.000000000000000E+00
(PID.TID 0000.0001) // SYMBOLS (CMIN->CMAX): -abcdefghijklmnopqrstuvwxyz+
(PID.TID 0000.0001) //                  0.0: .
(PID.TID 0000.0001) // RANGE I (Lo:Hi:Step):(  -1:   7:   1)
(PID.TID 0000.0001) // RANGE J (Lo:Hi:Step):(   7:  -1:  -1)
(PID.TID 0000.0001) // RANGE K (Lo:Hi:Step):(   1:   1:   1)
(PID.TID 0000.0001) // =======================================================
(PID.TID 0000.0001) // =======================================================
(PID.TID 0000.0001) // END OF FIELD                                          =
(PID.TID 0000.0001) // =======================================================
(PID.TID 0000.0001) 
(PID.TID 0000.0001) // =======================================================
(PID.TID 0000.0001) // Field hFacC at iteration          1
(PID.TID 0000.0001) // CMIN =          1.000000000000000E+00
(PID.TID 0000.0001) // CMAX =          1.000000000000000E+00
(PID.TID 0000.0001) // CINT =          0.000000000000000E+00
(PID.TID 0000.0001) // SYMBOLS (CMIN->CMAX): -abcdefghijklmnopqrstuvwxyz+
(PID.TID 0000.0001) //                  0.0: .
(PID.TID 0000.0001) // RANGE I (Lo:Hi:Step):(  -1:   7:   1)
(PID.TID 0000.0001) // RANGE J (Lo:Hi:Step):(   7:  -1:  -1)
(PID.TID 0000.0001) // RANGE K (Lo:Hi:Step):(   1:   1:   1)
(PID.TID 0000.0001) // =======================================================
(PID.TID 0000.0001) // =======================================================
(PID.TID 0000.0001) // END OF FIELD                                          =
(PID.TID 0000.0001) // =======================================================
(PID.TID 0000.0001) 
(PID.TID 0000.0001) // =======================================================
(PID.TID 0000.0001) // Field hFacW at iteration          1
(PID.TID 0000.0001) // CMIN =          1.000000000000000E+00
(PID.TID 0000.0001) // CMAX =          1.000000000000000E+00
(PID.TID 0000.0001) // CINT =          0.000000000000000E+00
(PID.TID 0000.0001) // SYMBOLS (CMIN->CMAX): -abcdefghijklmnopqrstuvwxyz+
(PID.TID 0000.0001) //                  0.0: .
(PID.TID 0000.0001) // RANGE I (Lo:Hi:Step):(  -1:   7:   1)
(PID.TID 0000.0001) // RANGE J (Lo:Hi:Step):(   7:  -1:  -1)
(PID.TID 0000.0001) // RANGE K (Lo:Hi:Step):(   1:   1:   1)
(PID.TID 0000.0001) // =======================================================
(PID.TID 0000.0001) // =======================================================
(PID.TID 0000.0001) // END OF FIELD                                          =
(PID.TID 0000.0001) // =======================================================
(PID.TID 0000.0001) 
(PID.TID 0000.0001) // =======================================================
(PID.TID 0000.0001) // Field hFacS at iteration          1
(PID.TID 0000.0001) // CMIN =          1.000000000000000E+00
(PID.TID 0000.0001) // CMAX =          1.000000000000000E+00
(PID.TID 0000.0001) // CINT =          0.000000000000000E+00
(PID.TID 0000.0001) // SYMBOLS (CMIN->CMAX): -abcdefghijklmnopqrstuvwxyz+
(PID.TID 0000.0001) //                  0.0: .
(PID.TID 0000.0001) // RANGE I (Lo:Hi:Step):(  -1:   7:   1)
(PID.TID 0000.0001) // RANGE J (Lo:Hi:Step):(   7:  -1:  -1)
(PID.TID 0000.0001) // RANGE K (Lo:Hi:Step):(   1:   1:   1)
(PID.TID 0000.0001) // =======================================================
(PID.TID 0000.0001) // =======================================================
(PID.TID 0000.0001) // END OF FIELD                                          =
(PID.TID 0000.0001) // =======================================================
(PID.TID 0000.0001) 
(PID.TID 0000.0001) %MON surfExpanfCori_max           =  -1.0735540000000E-04
(PID.TID 0000.0001) %MON surfExpanfCori_min           =  -1.1783060000000E-04
(PID.TID 0000.0001) %MON surfExpanfCori_mean          =  -1.1259300000000E-04
(PID.TID 0000.0001) %MON surfExpanfCori_sd            =   3.7035424771427E-06
(PID.TID 0000.0001) %MON surfExpanfCoriG_max          =  -1.0866480000000E-04
(PID.TID 0000.0001) %MON surfExpanfCoriG_min          =  -1.1914000000000E-04
(PID.TID 0000.0001) %MON surfExpanfCoriG_mean         =  -1.1390240000000E-04
(PID.TID 0000.0001) %MON surfExpanfCoriG_sd           =   3.7035424771427E-06
(PID.TID 0000.0001) %MON surfExpanfCoriCos_max        =   0.0000000000000E+00
(PID.TID 0000.0001) %MON surfExpanfCoriCos_min        =   0.0000000000000E+00
(PID.TID 0000.0001) %MON surfExpanfCoriCos_mean       =   0.0000000000000E+00
(PID.TID 0000.0001) %MON surfExpanfCoriCos_sd         =   0.0000000000000E+00
(PID.TID 0000.0001) INI_CG2D: CG2D normalisation factor =  1.9999999999999996E-04
(PID.TID 0000.0001) 
                     ctrl_depth_ini: ctrl update R_low,
                                     adding the control vector.
(PID.TID 0000.0001)  MDSREADFIELD: opening file: xx_depth.0000000000.001.001.data
(PID.TID 0000.0001) // =======================================================
(PID.TID 0000.0001) // Field Model Ro_surf (update_masks_etc) at iteration          1
(PID.TID 0000.0001) // CMIN =          2.273736754432321E-13
(PID.TID 0000.0001) // CMAX =          2.273736754432321E-13
(PID.TID 0000.0001) // CINT =          0.000000000000000E+00
(PID.TID 0000.0001) // SYMBOLS (CMIN->CMAX): -abcdefghijklmnopqrstuvwxyz+
(PID.TID 0000.0001) //                  0.0: .
(PID.TID 0000.0001) // RANGE I (Lo:Hi:Step):(  -1:   7:   1)
(PID.TID 0000.0001) // RANGE J (Lo:Hi:Step):(   7:  -1:  -1)
(PID.TID 0000.0001) // RANGE K (Lo:Hi:Step):(   1:   1:   1)
(PID.TID 0000.0001) // =======================================================
(PID.TID 0000.0001) // =======================================================
(PID.TID 0000.0001) // END OF FIELD                                          =
(PID.TID 0000.0001) // =======================================================
(PID.TID 0000.0001) 
(PID.TID 0000.0001) // =======================================================
(PID.TID 0000.0001) // Field hFacC at iteration          1
(PID.TID 0000.0001) // CMIN =          1.000000000000000E+00
(PID.TID 0000.0001) // CMAX =          1.000000000000000E+00
(PID.TID 0000.0001) // CINT =          0.000000000000000E+00
(PID.TID 0000.0001) // SYMBOLS (CMIN->CMAX): -abcdefghijklmnopqrstuvwxyz+
(PID.TID 0000.0001) //                  0.0: .
(PID.TID 0000.0001) // RANGE I (Lo:Hi:Step):(  -1:   7:   1)
(PID.TID 0000.0001) // RANGE J (Lo:Hi:Step):(   7:  -1:  -1)
(PID.TID 0000.0001) // RANGE K (Lo:Hi:Step):(   1:   1:   1)
(PID.TID 0000.0001) // =======================================================
(PID.TID 0000.0001) // =======================================================
(PID.TID 0000.0001) // END OF FIELD                                          =
(PID.TID 0000.0001) // =======================================================
(PID.TID 0000.0001) 
(PID.TID 0000.0001) // =======================================================
(PID.TID 0000.0001) // Field hFacW at iteration          1
(PID.TID 0000.0001) // CMIN =          1.000000000000000E+00
(PID.TID 0000.0001) // CMAX =          1.000000000000000E+00
(PID.TID 0000.0001) // CINT =          0.000000000000000E+00
(PID.TID 0000.0001) // SYMBOLS (CMIN->CMAX): -abcdefghijklmnopqrstuvwxyz+
(PID.TID 0000.0001) //                  0.0: .
(PID.TID 0000.0001) // RANGE I (Lo:Hi:Step):(  -1:   7:   1)
(PID.TID 0000.0001) // RANGE J (Lo:Hi:Step):(   7:  -1:  -1)
(PID.TID 0000.0001) // RANGE K (Lo:Hi:Step):(   1:   1:   1)
(PID.TID 0000.0001) // =======================================================
(PID.TID 0000.0001) // =======================================================
(PID.TID 0000.0001) // END OF FIELD                                          =
(PID.TID 0000.0001) // =======================================================
(PID.TID 0000.0001) 
(PID.TID 0000.0001) // =======================================================
(PID.TID 0000.0001) // Field hFacS at iteration          1
(PID.TID 0000.0001) // CMIN =          1.000000000000000E+00
(PID.TID 0000.0001) // CMAX =          1.000000000000000E+00
(PID.TID 0000.0001) // CINT =          0.000000000000000E+00
(PID.TID 0000.0001) // SYMBOLS (CMIN->CMAX): -abcdefghijklmnopqrstuvwxyz+
(PID.TID 0000.0001) //                  0.0: .
(PID.TID 0000.0001) // RANGE I (Lo:Hi:Step):(  -1:   7:   1)
(PID.TID 0000.0001) // RANGE J (Lo:Hi:Step):(   7:  -1:  -1)
(PID.TID 0000.0001) // RANGE K (Lo:Hi:Step):(   1:   1:   1)
(PID.TID 0000.0001) // =======================================================
(PID.TID 0000.0001) // =======================================================
(PID.TID 0000.0001) // END OF FIELD                                          =
(PID.TID 0000.0001) // =======================================================
(PID.TID 0000.0001) 
(PID.TID 0000.0001) // =======================================================
(PID.TID 0000.0001) // Field Initial Temperature at iteration          1
(PID.TID 0000.0001) // CMIN =          4.000000000000000E+00
(PID.TID 0000.0001) // CMAX =          4.000000000000000E+00
(PID.TID 0000.0001) // CINT =          0.000000000000000E+00
(PID.TID 0000.0001) // SYMBOLS (CMIN->CMAX): -abcdefghijklmnopqrstuvwxyz+
(PID.TID 0000.0001) //                  0.0: .
(PID.TID 0000.0001) // RANGE I (Lo:Hi:Step):(   1:   5:   1)
(PID.TID 0000.0001) // RANGE J (Lo:Hi:Step):(   5:   1:  -1)
(PID.TID 0000.0001) // RANGE K (Lo:Hi:Step):(   1:   1:   1)
(PID.TID 0000.0001) // =======================================================
(PID.TID 0000.0001) // =======================================================
(PID.TID 0000.0001) // END OF FIELD                                          =
(PID.TID 0000.0001) // =======================================================
(PID.TID 0000.0001) 
(PID.TID 0000.0001) // =======================================================
(PID.TID 0000.0001) // Field Initial Salinity at iteration          1
(PID.TID 0000.0001) // CMIN =          3.500000000000000E+01
(PID.TID 0000.0001) // CMAX =          3.500000000000000E+01
(PID.TID 0000.0001) // CINT =          0.000000000000000E+00
(PID.TID 0000.0001) // SYMBOLS (CMIN->CMAX): -abcdefghijklmnopqrstuvwxyz+
(PID.TID 0000.0001) //                  0.0: .
(PID.TID 0000.0001) // RANGE I (Lo:Hi:Step):(   1:   5:   1)
(PID.TID 0000.0001) // RANGE J (Lo:Hi:Step):(   5:   1:  -1)
(PID.TID 0000.0001) // RANGE K (Lo:Hi:Step):(   1:   1:   1)
(PID.TID 0000.0001) // =======================================================
(PID.TID 0000.0001) // =======================================================
(PID.TID 0000.0001) // END OF FIELD                                          =
(PID.TID 0000.0001) // =======================================================
(PID.TID 0000.0001) 
(PID.TID 0000.0001) Start initial hydrostatic pressure computation
(PID.TID 0000.0001) Pressure is predetermined for buoyancyRelation OCEANIC
(PID.TID 0000.0001) 
(PID.TID 0000.0001)  MDSREADFIELD: opening global file: windx.sin_y
(PID.TID 0000.0001) // =======================================================
(PID.TID 0000.0001) // Model current state
(PID.TID 0000.0001) // =======================================================
(PID.TID 0000.0001) 
 cg2d: Sum(rhs),rhsMax =   0.00000000000000E+00  0.00000000000000E+00
 cg2d: Sum(rhs),rhsMax =   4.68375338513738E-16  2.62483626325265E-03
 cg2d: Sum(rhs),rhsMax =   8.44810332800705E-16  5.13362633360820E-03
 cg2d: Sum(rhs),rhsMax =   2.78423117894278E-16  7.16168459297194E-03
 cg2d: Sum(rhs),rhsMax =   3.13117587413814E-16  9.29466756025301E-03
 cg2d: Sum(rhs),rhsMax =   5.82867087928207E-16  1.15304356803950E-02
 cg2d: Sum(rhs),rhsMax =   5.70290342727375E-16  1.37809802362104E-02
 cg2d: Sum(rhs),rhsMax =   8.22258927613007E-16  1.60011247479011E-02
 cg2d: Sum(rhs),rhsMax =   8.39606162372775E-16  1.82027337893833E-02
 cg2d: Sum(rhs),rhsMax =   7.49400541621981E-16  2.04493560847560E-02
 cg2d: Sum(rhs),rhsMax =   1.37390099297363E-15  2.25706027708765E-02
 cg2d: Sum(rhs),rhsMax =   1.42941214420489E-15  2.45301657124573E-02
 cg2d: Sum(rhs),rhsMax =   1.30451205393456E-15  2.63097944329507E-02
 cg2d: Sum(rhs),rhsMax =   1.06858966120171E-15  2.79110497162763E-02
 cg2d: Sum(rhs),rhsMax =   1.38083988687754E-15  2.93538602319172E-02
 cg2d: Sum(rhs),rhsMax =   1.79717352111197E-15  3.06720439033484E-02
 cg2d: Sum(rhs),rhsMax =   2.07472927726826E-15  3.19067816521635E-02
 cg2d: Sum(rhs),rhsMax =   1.25593979660721E-15  3.30992667535962E-02
 cg2d: Sum(rhs),rhsMax =   8.11850586757146E-16  3.42837432722238E-02
 cg2d: Sum(rhs),rhsMax =   8.95117313604032E-16  3.54819650644733E-02
 cg2d: Sum(rhs),rhsMax =   4.64905891561784E-16  3.66998058300588E-02
 cg2d: Sum(rhs),rhsMax =   6.45317133063372E-16  3.79264045324308E-02
 cg2d: Sum(rhs),rhsMax =   3.81639164714898E-16  3.91358858184571E-02
 cg2d: Sum(rhs),rhsMax =   6.10622663543836E-16  4.02913639032577E-02
 cg2d: Sum(rhs),rhsMax =   2.35922392732846E-16  4.13506294414215E-02
 cg2d: Sum(rhs),rhsMax =   1.11022302462516E-16  4.22726606400880E-02
 cg2d: Sum(rhs),rhsMax =  -5.27355936696949E-16  4.30239434952235E-02
 cg2d: Sum(rhs),rhsMax =  -6.52256026967279E-16  4.35835861920211E-02
 cg2d: Sum(rhs),rhsMax =  -6.10622663543836E-16  4.39463978174836E-02
 cg2d: Sum(rhs),rhsMax =  -7.07767178198537E-16  4.41234514280680E-02
 cg2d: Sum(rhs),rhsMax =  -1.70696790036118E-15  4.41400961856416E-02
 cg2d: Sum(rhs),rhsMax =  -1.98452365651747E-15  4.40318240889509E-02
 cg2d: Sum(rhs),rhsMax =  -2.02615701994091E-15  4.38387396970601E-02
 cg2d: Sum(rhs),rhsMax =  -1.36002320516582E-15  4.54379564872428E-02
 cg2d: Sum(rhs),rhsMax =  -1.02695629777827E-15  4.77259346259416E-02
 cg2d: Sum(rhs),rhsMax =  -9.43689570931383E-16  4.99949947820493E-02
 cg2d: Sum(rhs),rhsMax =  -8.88178419700125E-16  5.22073351443226E-02
 cg2d: Sum(rhs),rhsMax =  -9.29811783123569E-16  5.43317160373827E-02
 cg2d: Sum(rhs),rhsMax =  -6.52256026967279E-16  5.63476439850289E-02
 cg2d: Sum(rhs),rhsMax =  -4.16333634234434E-16  5.82478253216213E-02
 cg2d: Sum(rhs),rhsMax =  -4.71844785465692E-16  6.00385233313100E-02
 cg2d: Sum(rhs),rhsMax =  -2.77555756156289E-17  6.17377935157759E-02
 cg2d: Sum(rhs),rhsMax =  -5.55111512312578E-17  6.33719189030059E-02
 cg2d: Sum(rhs),rhsMax =  -3.33066907387547E-16  6.49706567933581E-02
 cg2d: Sum(rhs),rhsMax =  -8.88178419700125E-16  6.65620861466230E-02
 cg2d: Sum(rhs),rhsMax =  -8.32667268468867E-17  6.81678818752566E-02
 cg2d: Sum(rhs),rhsMax =  -3.88578058618805E-16  6.97997402941287E-02
 cg2d: Sum(rhs),rhsMax =  -2.77555756156289E-16  7.14574674367920E-02
 cg2d: Sum(rhs),rhsMax =  -2.22044604925031E-16  7.31289635004922E-02
 cg2d: Sum(rhs),rhsMax =  -2.77555756156289E-16  7.47920406778348E-02
 cg2d: Sum(rhs),rhsMax =   1.38777878078145E-16  7.64177411186064E-02
 cg2d: Sum(rhs),rhsMax =   4.99600361081320E-16  7.79746105546875E-02
 cg2d: Sum(rhs),rhsMax =   7.21644966006352E-16  7.94332555265478E-02
 cg2d: Sum(rhs),rhsMax =   6.38378239159465E-16  8.07704833620527E-02
 cg2d: Sum(rhs),rhsMax =   8.32667268468867E-17  8.19723989417775E-02
 cg2d: Sum(rhs),rhsMax =   5.82867087928207E-16  8.30360025937429E-02
 cg2d: Sum(rhs),rhsMax =   8.18789480661053E-16  8.39690755676778E-02
 cg2d: Sum(rhs),rhsMax =   8.88178419700125E-16  8.47884153926262E-02
 cg2d: Sum(rhs),rhsMax =   1.05471187339390E-15  8.55167462268433E-02
 cg2d: Sum(rhs),rhsMax =   6.80011602582908E-16  8.61788331044380E-02
 cg2d: Sum(rhs),rhsMax =   9.85322934354826E-16  8.67974391467478E-02
 cg2d: Sum(rhs),rhsMax =   1.31838984174237E-15  8.73897657782257E-02
 cg2d: Sum(rhs),rhsMax =   1.29063426612674E-15  8.79649135879223E-02
 cg2d: Sum(rhs),rhsMax =   1.13797860024079E-15  8.85227195039160E-02
 cg2d: Sum(rhs),rhsMax =   9.71445146547012E-16  8.90540989962327E-02
 cg2d: Sum(rhs),rhsMax =   8.32667268468867E-16  8.95427875772796E-02
 cg2d: Sum(rhs),rhsMax =   4.44089209850063E-16  8.99681681283399E-02
 cg2d: Sum(rhs),rhsMax =   7.07767178198537E-16  9.03087169377391E-02
 cg2d: Sum(rhs),rhsMax =   4.78783679369599E-16  9.05455208161923E-02
 cg2d: Sum(rhs),rhsMax =   5.89805981832114E-16  9.06653200051034E-02
 cg2d: Sum(rhs),rhsMax =   5.20417042793042E-16  9.06626161677483E-02
 cg2d: Sum(rhs),rhsMax =   3.74700270810990E-16  9.05405394375596E-02
 cg2d: Sum(rhs),rhsMax =   2.28983498828939E-16  9.03103698218101E-02
 cg2d: Sum(rhs),rhsMax =   2.04697370165263E-16  8.99898238933703E-02
 cg2d: Sum(rhs),rhsMax =   4.04190569902596E-16  8.96004116884083E-02
 cg2d: Sum(rhs),rhsMax =   8.45460854104196E-16  8.91643084728593E-02
 cg2d: Sum(rhs),rhsMax =   7.66747776381749E-16  8.87012491073821E-02
 cg2d: Sum(rhs),rhsMax =   8.84708972748172E-16  8.82259312864902E-02
 cg2d: Sum(rhs),rhsMax =   4.26741975090295E-16  8.77463155010706E-02
 cg2d: Sum(rhs),rhsMax =   6.59194920871187E-17  8.72630543421310E-02
 cg2d: Sum(rhs),rhsMax =  -5.20417042793042E-17  8.67700994635880E-02
 cg2d: Sum(rhs),rhsMax =  -5.23886489744996E-16  8.62563509111029E-02
 cg2d: Sum(rhs),rhsMax =  -3.67761376907083E-16  8.57080577559407E-02
 cg2d: Sum(rhs),rhsMax =  -4.61436444609831E-16  8.51115724521347E-02
 cg2d: Sum(rhs),rhsMax =  -1.36696209906972E-15  8.44560178304382E-02
 cg2d: Sum(rhs),rhsMax =  -1.38777878078145E-15  8.37354501431553E-02
 cg2d: Sum(rhs),rhsMax =  -1.43461631463282E-15  8.29501896342061E-02
 cg2d: Sum(rhs),rhsMax =  -1.42507533551495E-15  8.21071279181714E-02
 cg2d: Sum(rhs),rhsMax =  -1.84748050191530E-15  8.12189871810586E-02
 cg2d: Sum(rhs),rhsMax =  -1.74166236988071E-15  8.03026730353897E-02
 cg2d: Sum(rhs),rhsMax =  -1.85268467234323E-15  7.93770034432723E-02
 cg2d: Sum(rhs),rhsMax =  -2.10595429983584E-15  7.84601877157715E-02
 cg2d: Sum(rhs),rhsMax =  -1.74513181683267E-15  7.75674583789453E-02
 cg2d: Sum(rhs),rhsMax =  -1.73472347597681E-15  7.67092221547774E-02
 cg2d: Sum(rhs),rhsMax =  -1.68615121864946E-15  7.58900031092607E-02
 cg2d: Sum(rhs),rhsMax =  -1.69309011255336E-15  7.51083186247302E-02
 cg2d: Sum(rhs),rhsMax =  -1.49186218934005E-15  7.43574797364913E-02
 cg2d: Sum(rhs),rhsMax =  -1.42941214420489E-15  7.36271650090115E-02
 cg2d: Sum(rhs),rhsMax =  -1.04083408558608E-15  7.29055025195167E-02
 cg2d: Sum(rhs),rhsMax =  -6.52256026967279E-16  7.21813236499891E-02
 --> objf_test(bi,bj)   = -0.849803593765354E+00
 --> objf_tracer(bi,bj) =  0.000000000000000E+00
 --> objf_atl(bi,bj)    =  0.000000000000000E+00
  local fc = -0.849803593765354E+00
 global fc = -0.849803593765354E+00
(PID.TID 0000.0001)  MDSREADFIELD: opening file: xx_depth.0000000000.001.001.data
 grad-res -------------------------------
 grad-res     0   16    1    5    1   -.849803598E+00 -.849803602E+00 -.849803594E+00
 grad-res     0   16   16   16   20   -.417892130E-04 -.417855350E-04 0.880130523E-04
(PID.TID 0000.0001)       precision_grdchk_result ADM    -8.49803597943908E-01    -4.17892130282807E-05
 ph-grd  ierr ---------------------------
 ph-grd  ierr =  0, icomp =  16, ichknum =  16
(PID.TID 0000.0001)  MDSREADFIELD: opening file: adxx_depth.0000000000.001.001.data
(PID.TID 0000.0001)  MDSREADFIELD: opening file: xx_depth.0000000000.001.001.data
(PID.TID 0000.0001)  MDSREADFIELD: opening global file: walls.bigRidge
(PID.TID 0000.0001) // =======================================================
(PID.TID 0000.0001) // Field Bottom depths (ini_depths) at iteration          1
(PID.TID 0000.0001) // CMIN =         -5.000000000000000E+03
(PID.TID 0000.0001) // CMAX =         -2.000000000000000E+03
(PID.TID 0000.0001) // CINT =          1.111111111111111E+02
(PID.TID 0000.0001) // SYMBOLS (CMIN->CMAX): -abcdefghijklmnopqrstuvwxyz+
(PID.TID 0000.0001) //                  0.0: .
(PID.TID 0000.0001) // RANGE I (Lo:Hi:Step):(  -1:   7:   1)
(PID.TID 0000.0001) // RANGE J (Lo:Hi:Step):(   7:  -1:  -1)
(PID.TID 0000.0001) // RANGE K (Lo:Hi:Step):(   1:   1:   1)
(PID.TID 0000.0001) // =======================================================
(PID.TID 0000.0001) K =   1
(PID.TID 0000.0001) //
(PID.TID 0000.0001) // |--J--|*01234567
(PID.TID 0000.0001) //      7 ----+----
(PID.TID 0000.0001) //      6 .........
(PID.TID 0000.0001) //      5 ----+----
(PID.TID 0000.0001) //      4 ----+----
(PID.TID 0000.0001) //      3 ----+----
(PID.TID 0000.0001) //      2 ----+----
(PID.TID 0000.0001) //      1 .........
(PID.TID 0000.0001) //      0 ----+----
(PID.TID 0000.0001) //     -1 ----+----
(PID.TID 0000.0001) // =======================================================
(PID.TID 0000.0001) // END OF FIELD                                          =
(PID.TID 0000.0001) // =======================================================
(PID.TID 0000.0001) 
(PID.TID 0000.0001) // =======================================================
(PID.TID 0000.0001) // Field Model R_low (ini_masks_etc) at iteration          1
(PID.TID 0000.0001) // CMIN =         -5.000000000000000E+03
(PID.TID 0000.0001) // CMAX =         -2.000000000000000E+03
(PID.TID 0000.0001) // CINT =          1.111111111111111E+02
(PID.TID 0000.0001) // SYMBOLS (CMIN->CMAX): -abcdefghijklmnopqrstuvwxyz+
(PID.TID 0000.0001) //                  0.0: .
(PID.TID 0000.0001) // RANGE I (Lo:Hi:Step):(  -1:   7:   1)
(PID.TID 0000.0001) // RANGE J (Lo:Hi:Step):(   7:  -1:  -1)
(PID.TID 0000.0001) // RANGE K (Lo:Hi:Step):(   1:   1:   1)
(PID.TID 0000.0001) // =======================================================
(PID.TID 0000.0001) K =   1
(PID.TID 0000.0001) //
(PID.TID 0000.0001) // |--J--|*01234567
(PID.TID 0000.0001) //      7 ----+----
(PID.TID 0000.0001) //      6 .........
(PID.TID 0000.0001) //      5 ----+----
(PID.TID 0000.0001) //      4 ----+----
(PID.TID 0000.0001) //      3 ----+----
(PID.TID 0000.0001) //      2 ----+----
(PID.TID 0000.0001) //      1 .........
(PID.TID 0000.0001) //      0 ----+----
(PID.TID 0000.0001) //     -1 ----+----
(PID.TID 0000.0001) // =======================================================
(PID.TID 0000.0001) // END OF FIELD                                          =
(PID.TID 0000.0001) // =======================================================
(PID.TID 0000.0001) 
(PID.TID 0000.0001) // =======================================================
(PID.TID 0000.0001) // Field Model Ro_surf (ini_masks_etc) at iteration          1
(PID.TID 0000.0001) // CMIN =          2.273736754432321E-13
(PID.TID 0000.0001) // CMAX =          2.273736754432321E-13
(PID.TID 0000.0001) // CINT =          0.000000000000000E+00
(PID.TID 0000.0001) // SYMBOLS (CMIN->CMAX): -abcdefghijklmnopqrstuvwxyz+
(PID.TID 0000.0001) //                  0.0: .
(PID.TID 0000.0001) // RANGE I (Lo:Hi:Step):(  -1:   7:   1)
(PID.TID 0000.0001) // RANGE J (Lo:Hi:Step):(   7:  -1:  -1)
(PID.TID 0000.0001) // RANGE K (Lo:Hi:Step):(   1:   1:   1)
(PID.TID 0000.0001) // =======================================================
(PID.TID 0000.0001) // =======================================================
(PID.TID 0000.0001) // END OF FIELD                                          =
(PID.TID 0000.0001) // =======================================================
(PID.TID 0000.0001) 
(PID.TID 0000.0001) // =======================================================
(PID.TID 0000.0001) // Field hFacC at iteration          1
(PID.TID 0000.0001) // CMIN =          1.000000000000000E+00
(PID.TID 0000.0001) // CMAX =          1.000000000000000E+00
(PID.TID 0000.0001) // CINT =          0.000000000000000E+00
(PID.TID 0000.0001) // SYMBOLS (CMIN->CMAX): -abcdefghijklmnopqrstuvwxyz+
(PID.TID 0000.0001) //                  0.0: .
(PID.TID 0000.0001) // RANGE I (Lo:Hi:Step):(  -1:   7:   1)
(PID.TID 0000.0001) // RANGE J (Lo:Hi:Step):(   7:  -1:  -1)
(PID.TID 0000.0001) // RANGE K (Lo:Hi:Step):(   1:   1:   1)
(PID.TID 0000.0001) // =======================================================
(PID.TID 0000.0001) // =======================================================
(PID.TID 0000.0001) // END OF FIELD                                          =
(PID.TID 0000.0001) // =======================================================
(PID.TID 0000.0001) 
(PID.TID 0000.0001) // =======================================================
(PID.TID 0000.0001) // Field hFacW at iteration          1
(PID.TID 0000.0001) // CMIN =          1.000000000000000E+00
(PID.TID 0000.0001) // CMAX =          1.000000000000000E+00
(PID.TID 0000.0001) // CINT =          0.000000000000000E+00
(PID.TID 0000.0001) // SYMBOLS (CMIN->CMAX): -abcdefghijklmnopqrstuvwxyz+
(PID.TID 0000.0001) //                  0.0: .
(PID.TID 0000.0001) // RANGE I (Lo:Hi:Step):(  -1:   7:   1)
(PID.TID 0000.0001) // RANGE J (Lo:Hi:Step):(   7:  -1:  -1)
(PID.TID 0000.0001) // RANGE K (Lo:Hi:Step):(   1:   1:   1)
(PID.TID 0000.0001) // =======================================================
(PID.TID 0000.0001) // =======================================================
(PID.TID 0000.0001) // END OF FIELD                                          =
(PID.TID 0000.0001) // =======================================================
(PID.TID 0000.0001) 
(PID.TID 0000.0001) // =======================================================
(PID.TID 0000.0001) // Field hFacS at iteration          1
(PID.TID 0000.0001) // CMIN =          1.000000000000000E+00
(PID.TID 0000.0001) // CMAX =          1.000000000000000E+00
(PID.TID 0000.0001) // CINT =          0.000000000000000E+00
(PID.TID 0000.0001) // SYMBOLS (CMIN->CMAX): -abcdefghijklmnopqrstuvwxyz+
(PID.TID 0000.0001) //                  0.0: .
(PID.TID 0000.0001) // RANGE I (Lo:Hi:Step):(  -1:   7:   1)
(PID.TID 0000.0001) // RANGE J (Lo:Hi:Step):(   7:  -1:  -1)
(PID.TID 0000.0001) // RANGE K (Lo:Hi:Step):(   1:   1:   1)
(PID.TID 0000.0001) // =======================================================
(PID.TID 0000.0001) // =======================================================
(PID.TID 0000.0001) // END OF FIELD                                          =
(PID.TID 0000.0001) // =======================================================
(PID.TID 0000.0001) 
(PID.TID 0000.0001) %MON surfExpanfCori_max           =  -1.0735540000000E-04
(PID.TID 0000.0001) %MON surfExpanfCori_min           =  -1.1783060000000E-04
(PID.TID 0000.0001) %MON surfExpanfCori_mean          =  -1.1259300000000E-04
(PID.TID 0000.0001) %MON surfExpanfCori_sd            =   3.7035424771427E-06
(PID.TID 0000.0001) %MON surfExpanfCoriG_max          =  -1.0866480000000E-04
(PID.TID 0000.0001) %MON surfExpanfCoriG_min          =  -1.1914000000000E-04
(PID.TID 0000.0001) %MON surfExpanfCoriG_mean         =  -1.1390240000000E-04
(PID.TID 0000.0001) %MON surfExpanfCoriG_sd           =   3.7035424771427E-06
(PID.TID 0000.0001) %MON surfExpanfCoriCos_max        =   0.0000000000000E+00
(PID.TID 0000.0001) %MON surfExpanfCoriCos_min        =   0.0000000000000E+00
(PID.TID 0000.0001) %MON surfExpanfCoriCos_mean       =   0.0000000000000E+00
(PID.TID 0000.0001) %MON surfExpanfCoriCos_sd         =   0.0000000000000E+00
(PID.TID 0000.0001) INI_CG2D: CG2D normalisation factor =  1.9999999999999996E-04
(PID.TID 0000.0001) 
                     ctrl_depth_ini: ctrl update R_low,
                                     adding the control vector.
(PID.TID 0000.0001)  MDSREADFIELD: opening file: xx_depth.0000000000.001.001.data
(PID.TID 0000.0001) // =======================================================
(PID.TID 0000.0001) // Field Model Ro_surf (update_masks_etc) at iteration          1
(PID.TID 0000.0001) // CMIN =          2.273736754432321E-13
(PID.TID 0000.0001) // CMAX =          2.273736754432321E-13
(PID.TID 0000.0001) // CINT =          0.000000000000000E+00
(PID.TID 0000.0001) // SYMBOLS (CMIN->CMAX): -abcdefghijklmnopqrstuvwxyz+
(PID.TID 0000.0001) //                  0.0: .
(PID.TID 0000.0001) // RANGE I (Lo:Hi:Step):(  -1:   7:   1)
(PID.TID 0000.0001) // RANGE J (Lo:Hi:Step):(   7:  -1:  -1)
(PID.TID 0000.0001) // RANGE K (Lo:Hi:Step):(   1:   1:   1)
(PID.TID 0000.0001) // =======================================================
(PID.TID 0000.0001) // =======================================================
(PID.TID 0000.0001) // END OF FIELD                                          =
(PID.TID 0000.0001) // =======================================================
(PID.TID 0000.0001) 
(PID.TID 0000.0001) // =======================================================
(PID.TID 0000.0001) // Field hFacC at iteration          1
(PID.TID 0000.0001) // CMIN =          1.000000000000000E+00
(PID.TID 0000.0001) // CMAX =          1.000000000000000E+00
(PID.TID 0000.0001) // CINT =          0.000000000000000E+00
(PID.TID 0000.0001) // SYMBOLS (CMIN->CMAX): -abcdefghijklmnopqrstuvwxyz+
(PID.TID 0000.0001) //                  0.0: .
(PID.TID 0000.0001) // RANGE I (Lo:Hi:Step):(  -1:   7:   1)
(PID.TID 0000.0001) // RANGE J (Lo:Hi:Step):(   7:  -1:  -1)
(PID.TID 0000.0001) // RANGE K (Lo:Hi:Step):(   1:   1:   1)
(PID.TID 0000.0001) // =======================================================
(PID.TID 0000.0001) // =======================================================
(PID.TID 0000.0001) // END OF FIELD                                          =
(PID.TID 0000.0001) // =======================================================
(PID.TID 0000.0001) 
(PID.TID 0000.0001) // =======================================================
(PID.TID 0000.0001) // Field hFacW at iteration          1
(PID.TID 0000.0001) // CMIN =          1.000000000000000E+00
(PID.TID 0000.0001) // CMAX =          1.000000000000000E+00
(PID.TID 0000.0001) // CINT =          0.000000000000000E+00
(PID.TID 0000.0001) // SYMBOLS (CMIN->CMAX): -abcdefghijklmnopqrstuvwxyz+
(PID.TID 0000.0001) //                  0.0: .
(PID.TID 0000.0001) // RANGE I (Lo:Hi:Step):(  -1:   7:   1)
(PID.TID 0000.0001) // RANGE J (Lo:Hi:Step):(   7:  -1:  -1)
(PID.TID 0000.0001) // RANGE K (Lo:Hi:Step):(   1:   1:   1)
(PID.TID 0000.0001) // =======================================================
(PID.TID 0000.0001) // =======================================================
(PID.TID 0000.0001) // END OF FIELD                                          =
(PID.TID 0000.0001) // =======================================================
(PID.TID 0000.0001) 
(PID.TID 0000.0001) // =======================================================
(PID.TID 0000.0001) // Field hFacS at iteration          1
(PID.TID 0000.0001) // CMIN =          1.000000000000000E+00
(PID.TID 0000.0001) // CMAX =          1.000000000000000E+00
(PID.TID 0000.0001) // CINT =          0.000000000000000E+00
(PID.TID 0000.0001) // SYMBOLS (CMIN->CMAX): -abcdefghijklmnopqrstuvwxyz+
(PID.TID 0000.0001) //                  0.0: .
(PID.TID 0000.0001) // RANGE I (Lo:Hi:Step):(  -1:   7:   1)
(PID.TID 0000.0001) // RANGE J (Lo:Hi:Step):(   7:  -1:  -1)
(PID.TID 0000.0001) // RANGE K (Lo:Hi:Step):(   1:   1:   1)
(PID.TID 0000.0001) // =======================================================
(PID.TID 0000.0001) // =======================================================
(PID.TID 0000.0001) // END OF FIELD                                          =
(PID.TID 0000.0001) // =======================================================
(PID.TID 0000.0001) 
(PID.TID 0000.0001) // =======================================================
(PID.TID 0000.0001) // Field Initial Temperature at iteration          1
(PID.TID 0000.0001) // CMIN =          4.000000000000000E+00
(PID.TID 0000.0001) // CMAX =          4.000000000000000E+00
(PID.TID 0000.0001) // CINT =          0.000000000000000E+00
(PID.TID 0000.0001) // SYMBOLS (CMIN->CMAX): -abcdefghijklmnopqrstuvwxyz+
(PID.TID 0000.0001) //                  0.0: .
(PID.TID 0000.0001) // RANGE I (Lo:Hi:Step):(   1:   5:   1)
(PID.TID 0000.0001) // RANGE J (Lo:Hi:Step):(   5:   1:  -1)
(PID.TID 0000.0001) // RANGE K (Lo:Hi:Step):(   1:   1:   1)
(PID.TID 0000.0001) // =======================================================
(PID.TID 0000.0001) // =======================================================
(PID.TID 0000.0001) // END OF FIELD                                          =
(PID.TID 0000.0001) // =======================================================
(PID.TID 0000.0001) 
(PID.TID 0000.0001) // =======================================================
(PID.TID 0000.0001) // Field Initial Salinity at iteration          1
(PID.TID 0000.0001) // CMIN =          3.500000000000000E+01
(PID.TID 0000.0001) // CMAX =          3.500000000000000E+01
(PID.TID 0000.0001) // CINT =          0.000000000000000E+00
(PID.TID 0000.0001) // SYMBOLS (CMIN->CMAX): -abcdefghijklmnopqrstuvwxyz+
(PID.TID 0000.0001) //                  0.0: .
(PID.TID 0000.0001) // RANGE I (Lo:Hi:Step):(   1:   5:   1)
(PID.TID 0000.0001) // RANGE J (Lo:Hi:Step):(   5:   1:  -1)
(PID.TID 0000.0001) // RANGE K (Lo:Hi:Step):(   1:   1:   1)
(PID.TID 0000.0001) // =======================================================
(PID.TID 0000.0001) // =======================================================
(PID.TID 0000.0001) // END OF FIELD                                          =
(PID.TID 0000.0001) // =======================================================
(PID.TID 0000.0001) 
(PID.TID 0000.0001) Start initial hydrostatic pressure computation
(PID.TID 0000.0001) Pressure is predetermined for buoyancyRelation OCEANIC
(PID.TID 0000.0001) 
(PID.TID 0000.0001)  MDSREADFIELD: opening global file: windx.sin_y
(PID.TID 0000.0001) // =======================================================
(PID.TID 0000.0001) // Model current state
(PID.TID 0000.0001) // =======================================================
(PID.TID 0000.0001) 
 cg2d: Sum(rhs),rhsMax =   0.00000000000000E+00  0.00000000000000E+00
 cg2d: Sum(rhs),rhsMax =   4.68375338513738E-16  2.62483626325265E-03
 cg2d: Sum(rhs),rhsMax =   5.91540705308091E-16  5.13362633360820E-03
 cg2d: Sum(rhs),rhsMax =   2.58907478789538E-16  7.16168459288574E-03
 cg2d: Sum(rhs),rhsMax =  -2.52402265754625E-16  9.29466756005214E-03
 cg2d: Sum(rhs),rhsMax =  -4.99600361081320E-16  1.15304356799281E-02
 cg2d: Sum(rhs),rhsMax =  -3.08347097854877E-16  1.37809802357534E-02
 cg2d: Sum(rhs),rhsMax =  -1.49186218934005E-16  1.60011247474847E-02
 cg2d: Sum(rhs),rhsMax =   1.73472347597681E-16  1.82027337913049E-02
 cg2d: Sum(rhs),rhsMax =   4.30211422042248E-16  2.04493560871852E-02
 cg2d: Sum(rhs),rhsMax =   1.27675647831893E-15  2.25706027737942E-02
 cg2d: Sum(rhs),rhsMax =   1.12410081243297E-15  2.45301657158034E-02
 cg2d: Sum(rhs),rhsMax =   9.02056207507940E-16  2.63097944366396E-02
 cg2d: Sum(rhs),rhsMax =   9.99200722162641E-16  2.79110497202108E-02
 cg2d: Sum(rhs),rhsMax =   1.24900090270330E-15  2.93538602360048E-02
 cg2d: Sum(rhs),rhsMax =   1.18655085756814E-15  3.06720439075162E-02
 cg2d: Sum(rhs),rhsMax =   1.36696209906972E-15  3.19067816563707E-02
 cg2d: Sum(rhs),rhsMax =   7.07767178198537E-16  3.30992667578404E-02
 cg2d: Sum(rhs),rhsMax =   7.77156117237610E-16  3.42837432765410E-02
 cg2d: Sum(rhs),rhsMax =   1.04083408558608E-15  3.54819650689331E-02
 cg2d: Sum(rhs),rhsMax =   1.06165076729781E-15  3.66998058347536E-02
 cg2d: Sum(rhs),rhsMax =   1.66533453693773E-15  3.79264045374622E-02
 cg2d: Sum(rhs),rhsMax =   1.53349555276350E-15  3.91358858239220E-02
 cg2d: Sum(rhs),rhsMax =   1.16573417585641E-15  4.02913639092350E-02
 cg2d: Sum(rhs),rhsMax =   5.55111512312578E-16  4.13506294479641E-02
 cg2d: Sum(rhs),rhsMax =   4.44089209850063E-16  4.22726606472180E-02
 cg2d: Sum(rhs),rhsMax =   9.71445146547012E-16  4.30239435029346E-02
 cg2d: Sum(rhs),rhsMax =   1.44328993201270E-15  4.35835862002852E-02
 cg2d: Sum(rhs),rhsMax =   7.49400541621981E-16  4.39463978262620E-02
 cg2d: Sum(rhs),rhsMax =   4.85722573273506E-16  4.41234514373245E-02
 cg2d: Sum(rhs),rhsMax =   2.49800180540660E-16  4.41400961953561E-02
 cg2d: Sum(rhs),rhsMax =   4.71844785465692E-16  4.40318240991294E-02
 cg2d: Sum(rhs),rhsMax =   6.93889390390723E-17  4.38387397077433E-02
 cg2d: Sum(rhs),rhsMax =   2.22044604925031E-16  4.54379564870334E-02
 cg2d: Sum(rhs),rhsMax =  -9.71445146547012E-17  4.77259346235632E-02
 cg2d: Sum(rhs),rhsMax =  -2.22044604925031E-16  4.99949947769909E-02
 cg2d: Sum(rhs),rhsMax =   8.32667268468867E-17  5.22073351360147E-02
 cg2d: Sum(rhs),rhsMax =   9.71445146547012E-17  5.43317160252355E-02
 cg2d: Sum(rhs),rhsMax =   1.80411241501588E-16  5.63476439684722E-02
 cg2d: Sum(rhs),rhsMax =  -4.71844785465692E-16  5.82478253001408E-02
 cg2d: Sum(rhs),rhsMax =  -7.21644966006352E-16  6.00385233044747E-02
 cg2d: Sum(rhs),rhsMax =  -4.44089209850063E-16  6.17377934832529E-02
 cg2d: Sum(rhs),rhsMax =  -2.49800180540660E-16  6.33719188645609E-02
 cg2d: Sum(rhs),rhsMax =  -4.16333634234434E-16  6.49706567488426E-02
 cg2d: Sum(rhs),rhsMax =   2.77555756156289E-17  6.65620860959498E-02
 cg2d: Sum(rhs),rhsMax =   2.77555756156289E-17  6.81678818183700E-02
 cg2d: Sum(rhs),rhsMax =  -8.32667268468867E-17  6.97997402309715E-02
 cg2d: Sum(rhs),rhsMax =  -1.38777878078145E-16  7.14574673672783E-02
 cg2d: Sum(rhs),rhsMax =   2.77555756156289E-17  7.31289634244868E-02
 cg2d: Sum(rhs),rhsMax =  -1.11022302462516E-16  7.47920405951456E-02
 cg2d: Sum(rhs),rhsMax =  -5.82867087928207E-16  7.64177410289883E-02
 cg2d: Sum(rhs),rhsMax =  -2.22044604925031E-16  7.79746104578581E-02
 cg2d: Sum(rhs),rhsMax =  -4.16333634234434E-16  7.94332554222128E-02
 cg2d: Sum(rhs),rhsMax =  -6.93889390390723E-16  8.07704832499352E-02
 cg2d: Sum(rhs),rhsMax =  -3.60822483003176E-16  8.19723988216478E-02
 cg2d: Sum(rhs),rhsMax =  -3.33066907387547E-16  8.30360024654435E-02
 cg2d: Sum(rhs),rhsMax =  -8.32667268468867E-17  8.39690754311398E-02
 cg2d: Sum(rhs),rhsMax =  -8.32667268468867E-17  8.47884152478747E-02
 cg2d: Sum(rhs),rhsMax =   1.11022302462516E-16  8.55167460739907E-02
 cg2d: Sum(rhs),rhsMax =   1.66533453693773E-16  8.61788329436665E-02
 cg2d: Sum(rhs),rhsMax =   4.16333634234434E-17  8.67974389782841E-02
 cg2d: Sum(rhs),rhsMax =  -2.35922392732846E-16  8.73897656023103E-02
 cg2d: Sum(rhs),rhsMax =   1.80411241501588E-16  8.79649134047804E-02
 cg2d: Sum(rhs),rhsMax =   1.38777878078145E-17  8.85227193137318E-02
 cg2d: Sum(rhs),rhsMax =   6.93889390390723E-16  8.90540987991326E-02
 cg2d: Sum(rhs),rhsMax =   7.49400541621981E-16  8.95427873733249E-02
 cg2d: Sum(rhs),rhsMax =   9.29811783123569E-16  8.99681679175307E-02
 cg2d: Sum(rhs),rhsMax =   7.70217223333702E-16  9.03087167200281E-02
 cg2d: Sum(rhs),rhsMax =   2.35922392732846E-16  9.05455205915053E-02
 cg2d: Sum(rhs),rhsMax =  -1.73472347597681E-16  9.06653197733637E-02
 cg2d: Sum(rhs),rhsMax =  -4.57966997657877E-16  9.06626159289012E-02
 cg2d: Sum(rhs),rhsMax =  -3.67761376907083E-16  9.05405391915915E-02
 cg2d: Sum(rhs),rhsMax =  -2.77555756156289E-16  9.03103695687619E-02
 cg2d: Sum(rhs),rhsMax =  -1.01654795692241E-15  8.99898236333411E-02
 cg2d: Sum(rhs),rhsMax =  -1.40512601554121E-15  8.96004114215494E-02
 cg2d: Sum(rhs),rhsMax =  -1.67270711171064E-15  8.91643081993603E-02
 cg2d: Sum(rhs),rhsMax =  -1.69482483602934E-15  8.87012488274512E-02
 cg2d: Sum(rhs),rhsMax =  -2.11636264069170E-15  8.82259310003316E-02
 cg2d: Sum(rhs),rhsMax =  -2.14411821630733E-15  8.77463152088627E-02
 cg2d: Sum(rhs),rhsMax =  -2.12330153459561E-15  8.72630540440091E-02
 cg2d: Sum(rhs),rhsMax =  -1.73125402902485E-15  8.67700991596335E-02
 cg2d: Sum(rhs),rhsMax =  -1.87697080100691E-15  8.62563506013413E-02
 cg2d: Sum(rhs),rhsMax =  -2.08860706507608E-15  8.57080574403474E-02
 cg2d: Sum(rhs),rhsMax =  -2.10768902331182E-15  8.51115721306487E-02
 cg2d: Sum(rhs),rhsMax =  -2.00707506170517E-15  8.44560175029801E-02
 cg2d: Sum(rhs),rhsMax =  -2.11289319373975E-15  8.37354498096480E-02
 cg2d: Sum(rhs),rhsMax =  -2.33667252214076E-15  8.29501892945941E-02
 cg2d: Sum(rhs),rhsMax =  -2.13024042849952E-15  8.21071275724353E-02
 cg2d: Sum(rhs),rhsMax =  -1.98972782694540E-15  8.12189868292250E-02
 cg2d: Sum(rhs),rhsMax =  -1.98192157130350E-15  8.03026726775313E-02
 cg2d: Sum(rhs),rhsMax =  -2.15105711021124E-15  7.93770030795032E-02
 cg2d: Sum(rhs),rhsMax =  -2.05564731903252E-15  7.84601873462336E-02
 cg2d: Sum(rhs),rhsMax =  -2.36442809775639E-15  7.75674580037925E-02
 cg2d: Sum(rhs),rhsMax =  -2.14411821630733E-15  7.67092217741576E-02
 cg2d: Sum(rhs),rhsMax =  -2.52575738102223E-15  7.58900027232987E-02
 cg2d: Sum(rhs),rhsMax =  -2.80331313717852E-15  7.51083182335159E-02
 cg2d: Sum(rhs),rhsMax =  -2.90045765183322E-15  7.43574793400720E-02
 cg2d: Sum(rhs),rhsMax =  -3.24740234702858E-15  7.36271646073926E-02
 cg2d: Sum(rhs),rhsMax =  -3.42087469462626E-15  7.29055021126677E-02
 cg2d: Sum(rhs),rhsMax =  -3.58046925441613E-15  7.21813232378558E-02
 --> objf_test(bi,bj)   = -0.849803591415654E+00
 --> objf_tracer(bi,bj) =  0.000000000000000E+00
 --> objf_atl(bi,bj)    =  0.000000000000000E+00
  local fc = -0.849803591415654E+00
 global fc = -0.849803591415654E+00
 ph-check fcpertplus =  -0.849803591
(PID.TID 0000.0001)  MDSREADFIELD: opening file: xx_depth.0000000000.001.001.data
 ph-check fcpertminus =  -0.849803598
(PID.TID 0000.0001)  MDSREADFIELD: opening file: xx_depth.0000000000.001.001.data
(PID.TID 0000.0001)  MDSREADFIELD: opening global file: walls.bigRidge
(PID.TID 0000.0001) // =======================================================
(PID.TID 0000.0001) // Field Bottom depths (ini_depths) at iteration          1
(PID.TID 0000.0001) // CMIN =         -5.000000000000000E+03
(PID.TID 0000.0001) // CMAX =         -2.000000000000000E+03
(PID.TID 0000.0001) // CINT =          1.111111111111111E+02
(PID.TID 0000.0001) // SYMBOLS (CMIN->CMAX): -abcdefghijklmnopqrstuvwxyz+
(PID.TID 0000.0001) //                  0.0: .
(PID.TID 0000.0001) // RANGE I (Lo:Hi:Step):(  -1:   7:   1)
(PID.TID 0000.0001) // RANGE J (Lo:Hi:Step):(   7:  -1:  -1)
(PID.TID 0000.0001) // RANGE K (Lo:Hi:Step):(   1:   1:   1)
(PID.TID 0000.0001) // =======================================================
(PID.TID 0000.0001) K =   1
(PID.TID 0000.0001) //
(PID.TID 0000.0001) // |--J--|*01234567
(PID.TID 0000.0001) //      7 ----+----
(PID.TID 0000.0001) //      6 .........
(PID.TID 0000.0001) //      5 ----+----
(PID.TID 0000.0001) //      4 ----+----
(PID.TID 0000.0001) //      3 ----+----
(PID.TID 0000.0001) //      2 ----+----
(PID.TID 0000.0001) //      1 .........
(PID.TID 0000.0001) //      0 ----+----
(PID.TID 0000.0001) //     -1 ----+----
(PID.TID 0000.0001) // =======================================================
(PID.TID 0000.0001) // END OF FIELD                                          =
(PID.TID 0000.0001) // =======================================================
(PID.TID 0000.0001) 
(PID.TID 0000.0001) // =======================================================
(PID.TID 0000.0001) // Field Model R_low (ini_masks_etc) at iteration          1
(PID.TID 0000.0001) // CMIN =         -5.000000000000000E+03
(PID.TID 0000.0001) // CMAX =         -2.000000000000000E+03
(PID.TID 0000.0001) // CINT =          1.111111111111111E+02
(PID.TID 0000.0001) // SYMBOLS (CMIN->CMAX): -abcdefghijklmnopqrstuvwxyz+
(PID.TID 0000.0001) //                  0.0: .
(PID.TID 0000.0001) // RANGE I (Lo:Hi:Step):(  -1:   7:   1)
(PID.TID 0000.0001) // RANGE J (Lo:Hi:Step):(   7:  -1:  -1)
(PID.TID 0000.0001) // RANGE K (Lo:Hi:Step):(   1:   1:   1)
(PID.TID 0000.0001) // =======================================================
(PID.TID 0000.0001) K =   1
(PID.TID 0000.0001) //
(PID.TID 0000.0001) // |--J--|*01234567
(PID.TID 0000.0001) //      7 ----+----
(PID.TID 0000.0001) //      6 .........
(PID.TID 0000.0001) //      5 ----+----
(PID.TID 0000.0001) //      4 ----+----
(PID.TID 0000.0001) //      3 ----+----
(PID.TID 0000.0001) //      2 ----+----
(PID.TID 0000.0001) //      1 .........
(PID.TID 0000.0001) //      0 ----+----
(PID.TID 0000.0001) //     -1 ----+----
(PID.TID 0000.0001) // =======================================================
(PID.TID 0000.0001) // END OF FIELD                                          =
(PID.TID 0000.0001) // =======================================================
(PID.TID 0000.0001) 
(PID.TID 0000.0001) // =======================================================
(PID.TID 0000.0001) // Field Model Ro_surf (ini_masks_etc) at iteration          1
(PID.TID 0000.0001) // CMIN =          2.273736754432321E-13
(PID.TID 0000.0001) // CMAX =          2.273736754432321E-13
(PID.TID 0000.0001) // CINT =          0.000000000000000E+00
(PID.TID 0000.0001) // SYMBOLS (CMIN->CMAX): -abcdefghijklmnopqrstuvwxyz+
(PID.TID 0000.0001) //                  0.0: .
(PID.TID 0000.0001) // RANGE I (Lo:Hi:Step):(  -1:   7:   1)
(PID.TID 0000.0001) // RANGE J (Lo:Hi:Step):(   7:  -1:  -1)
(PID.TID 0000.0001) // RANGE K (Lo:Hi:Step):(   1:   1:   1)
(PID.TID 0000.0001) // =======================================================
(PID.TID 0000.0001) // =======================================================
(PID.TID 0000.0001) // END OF FIELD                                          =
(PID.TID 0000.0001) // =======================================================
(PID.TID 0000.0001) 
(PID.TID 0000.0001) // =======================================================
(PID.TID 0000.0001) // Field hFacC at iteration          1
(PID.TID 0000.0001) // CMIN =          1.000000000000000E+00
(PID.TID 0000.0001) // CMAX =          1.000000000000000E+00
(PID.TID 0000.0001) // CINT =          0.000000000000000E+00
(PID.TID 0000.0001) // SYMBOLS (CMIN->CMAX): -abcdefghijklmnopqrstuvwxyz+
(PID.TID 0000.0001) //                  0.0: .
(PID.TID 0000.0001) // RANGE I (Lo:Hi:Step):(  -1:   7:   1)
(PID.TID 0000.0001) // RANGE J (Lo:Hi:Step):(   7:  -1:  -1)
(PID.TID 0000.0001) // RANGE K (Lo:Hi:Step):(   1:   1:   1)
(PID.TID 0000.0001) // =======================================================
(PID.TID 0000.0001) // =======================================================
(PID.TID 0000.0001) // END OF FIELD                                          =
(PID.TID 0000.0001) // =======================================================
(PID.TID 0000.0001) 
(PID.TID 0000.0001) // =======================================================
(PID.TID 0000.0001) // Field hFacW at iteration          1
(PID.TID 0000.0001) // CMIN =          1.000000000000000E+00
(PID.TID 0000.0001) // CMAX =          1.000000000000000E+00
(PID.TID 0000.0001) // CINT =          0.000000000000000E+00
(PID.TID 0000.0001) // SYMBOLS (CMIN->CMAX): -abcdefghijklmnopqrstuvwxyz+
(PID.TID 0000.0001) //                  0.0: .
(PID.TID 0000.0001) // RANGE I (Lo:Hi:Step):(  -1:   7:   1)
(PID.TID 0000.0001) // RANGE J (Lo:Hi:Step):(   7:  -1:  -1)
(PID.TID 0000.0001) // RANGE K (Lo:Hi:Step):(   1:   1:   1)
(PID.TID 0000.0001) // =======================================================
(PID.TID 0000.0001) // =======================================================
(PID.TID 0000.0001) // END OF FIELD                                          =
(PID.TID 0000.0001) // =======================================================
(PID.TID 0000.0001) 
(PID.TID 0000.0001) // =======================================================
(PID.TID 0000.0001) // Field hFacS at iteration          1
(PID.TID 0000.0001) // CMIN =          1.000000000000000E+00
(PID.TID 0000.0001) // CMAX =          1.000000000000000E+00
(PID.TID 0000.0001) // CINT =          0.000000000000000E+00
(PID.TID 0000.0001) // SYMBOLS (CMIN->CMAX): -abcdefghijklmnopqrstuvwxyz+
(PID.TID 0000.0001) //                  0.0: .
(PID.TID 0000.0001) // RANGE I (Lo:Hi:Step):(  -1:   7:   1)
(PID.TID 0000.0001) // RANGE J (Lo:Hi:Step):(   7:  -1:  -1)
(PID.TID 0000.0001) // RANGE K (Lo:Hi:Step):(   1:   1:   1)
(PID.TID 0000.0001) // =======================================================
(PID.TID 0000.0001) // =======================================================
(PID.TID 0000.0001) // END OF FIELD                                          =
(PID.TID 0000.0001) // =======================================================
(PID.TID 0000.0001) 
(PID.TID 0000.0001) %MON surfExpanfCori_max           =  -1.0735540000000E-04
(PID.TID 0000.0001) %MON surfExpanfCori_min           =  -1.1783060000000E-04
(PID.TID 0000.0001) %MON surfExpanfCori_mean          =  -1.1259300000000E-04
(PID.TID 0000.0001) %MON surfExpanfCori_sd            =   3.7035424771427E-06
(PID.TID 0000.0001) %MON surfExpanfCoriG_max          =  -1.0866480000000E-04
(PID.TID 0000.0001) %MON surfExpanfCoriG_min          =  -1.1914000000000E-04
(PID.TID 0000.0001) %MON surfExpanfCoriG_mean         =  -1.1390240000000E-04
(PID.TID 0000.0001) %MON surfExpanfCoriG_sd           =   3.7035424771427E-06
(PID.TID 0000.0001) %MON surfExpanfCoriCos_max        =   0.0000000000000E+00
(PID.TID 0000.0001) %MON surfExpanfCoriCos_min        =   0.0000000000000E+00
(PID.TID 0000.0001) %MON surfExpanfCoriCos_mean       =   0.0000000000000E+00
(PID.TID 0000.0001) %MON surfExpanfCoriCos_sd         =   0.0000000000000E+00
(PID.TID 0000.0001) INI_CG2D: CG2D normalisation factor =  1.9999999999999996E-04
(PID.TID 0000.0001) 
                     ctrl_depth_ini: ctrl update R_low,
                                     adding the control vector.
(PID.TID 0000.0001)  MDSREADFIELD: opening file: xx_depth.0000000000.001.001.data
(PID.TID 0000.0001) // =======================================================
(PID.TID 0000.0001) // Field Model Ro_surf (update_masks_etc) at iteration          1
(PID.TID 0000.0001) // CMIN =          2.273736754432321E-13
(PID.TID 0000.0001) // CMAX =          2.273736754432321E-13
(PID.TID 0000.0001) // CINT =          0.000000000000000E+00
(PID.TID 0000.0001) // SYMBOLS (CMIN->CMAX): -abcdefghijklmnopqrstuvwxyz+
(PID.TID 0000.0001) //                  0.0: .
(PID.TID 0000.0001) // RANGE I (Lo:Hi:Step):(  -1:   7:   1)
(PID.TID 0000.0001) // RANGE J (Lo:Hi:Step):(   7:  -1:  -1)
(PID.TID 0000.0001) // RANGE K (Lo:Hi:Step):(   1:   1:   1)
(PID.TID 0000.0001) // =======================================================
(PID.TID 0000.0001) // =======================================================
(PID.TID 0000.0001) // END OF FIELD                                          =
(PID.TID 0000.0001) // =======================================================
(PID.TID 0000.0001) 
(PID.TID 0000.0001) // =======================================================
(PID.TID 0000.0001) // Field hFacC at iteration          1
(PID.TID 0000.0001) // CMIN =          1.000000000000000E+00
(PID.TID 0000.0001) // CMAX =          1.000000000000000E+00
(PID.TID 0000.0001) // CINT =          0.000000000000000E+00
(PID.TID 0000.0001) // SYMBOLS (CMIN->CMAX): -abcdefghijklmnopqrstuvwxyz+
(PID.TID 0000.0001) //                  0.0: .
(PID.TID 0000.0001) // RANGE I (Lo:Hi:Step):(  -1:   7:   1)
(PID.TID 0000.0001) // RANGE J (Lo:Hi:Step):(   7:  -1:  -1)
(PID.TID 0000.0001) // RANGE K (Lo:Hi:Step):(   1:   1:   1)
(PID.TID 0000.0001) // =======================================================
(PID.TID 0000.0001) // =======================================================
(PID.TID 0000.0001) // END OF FIELD                                          =
(PID.TID 0000.0001) // =======================================================
(PID.TID 0000.0001) 
(PID.TID 0000.0001) // =======================================================
(PID.TID 0000.0001) // Field hFacW at iteration          1
(PID.TID 0000.0001) // CMIN =          1.000000000000000E+00
(PID.TID 0000.0001) // CMAX =          1.000000000000000E+00
(PID.TID 0000.0001) // CINT =          0.000000000000000E+00
(PID.TID 0000.0001) // SYMBOLS (CMIN->CMAX): -abcdefghijklmnopqrstuvwxyz+
(PID.TID 0000.0001) //                  0.0: .
(PID.TID 0000.0001) // RANGE I (Lo:Hi:Step):(  -1:   7:   1)
(PID.TID 0000.0001) // RANGE J (Lo:Hi:Step):(   7:  -1:  -1)
(PID.TID 0000.0001) // RANGE K (Lo:Hi:Step):(   1:   1:   1)
(PID.TID 0000.0001) // =======================================================
(PID.TID 0000.0001) // =======================================================
(PID.TID 0000.0001) // END OF FIELD                                          =
(PID.TID 0000.0001) // =======================================================
(PID.TID 0000.0001) 
(PID.TID 0000.0001) // =======================================================
(PID.TID 0000.0001) // Field hFacS at iteration          1
(PID.TID 0000.0001) // CMIN =          1.000000000000000E+00
(PID.TID 0000.0001) // CMAX =          1.000000000000000E+00
(PID.TID 0000.0001) // CINT =          0.000000000000000E+00
(PID.TID 0000.0001) // SYMBOLS (CMIN->CMAX): -abcdefghijklmnopqrstuvwxyz+
(PID.TID 0000.0001) //                  0.0: .
(PID.TID 0000.0001) // RANGE I (Lo:Hi:Step):(  -1:   7:   1)
(PID.TID 0000.0001) // RANGE J (Lo:Hi:Step):(   7:  -1:  -1)
(PID.TID 0000.0001) // RANGE K (Lo:Hi:Step):(   1:   1:   1)
(PID.TID 0000.0001) // =======================================================
(PID.TID 0000.0001) // =======================================================
(PID.TID 0000.0001) // END OF FIELD                                          =
(PID.TID 0000.0001) // =======================================================
(PID.TID 0000.0001) 
(PID.TID 0000.0001) // =======================================================
(PID.TID 0000.0001) // Field Initial Temperature at iteration          1
(PID.TID 0000.0001) // CMIN =          4.000000000000000E+00
(PID.TID 0000.0001) // CMAX =          4.000000000000000E+00
(PID.TID 0000.0001) // CINT =          0.000000000000000E+00
(PID.TID 0000.0001) // SYMBOLS (CMIN->CMAX): -abcdefghijklmnopqrstuvwxyz+
(PID.TID 0000.0001) //                  0.0: .
(PID.TID 0000.0001) // RANGE I (Lo:Hi:Step):(   1:   5:   1)
(PID.TID 0000.0001) // RANGE J (Lo:Hi:Step):(   5:   1:  -1)
(PID.TID 0000.0001) // RANGE K (Lo:Hi:Step):(   1:   1:   1)
(PID.TID 0000.0001) // =======================================================
(PID.TID 0000.0001) // =======================================================
(PID.TID 0000.0001) // END OF FIELD                                          =
(PID.TID 0000.0001) // =======================================================
(PID.TID 0000.0001) 
(PID.TID 0000.0001) // =======================================================
(PID.TID 0000.0001) // Field Initial Salinity at iteration          1
(PID.TID 0000.0001) // CMIN =          3.500000000000000E+01
(PID.TID 0000.0001) // CMAX =          3.500000000000000E+01
(PID.TID 0000.0001) // CINT =          0.000000000000000E+00
(PID.TID 0000.0001) // SYMBOLS (CMIN->CMAX): -abcdefghijklmnopqrstuvwxyz+
(PID.TID 0000.0001) //                  0.0: .
(PID.TID 0000.0001) // RANGE I (Lo:Hi:Step):(   1:   5:   1)
(PID.TID 0000.0001) // RANGE J (Lo:Hi:Step):(   5:   1:  -1)
(PID.TID 0000.0001) // RANGE K (Lo:Hi:Step):(   1:   1:   1)
(PID.TID 0000.0001) // =======================================================
(PID.TID 0000.0001) // =======================================================
(PID.TID 0000.0001) // END OF FIELD                                          =
(PID.TID 0000.0001) // =======================================================
(PID.TID 0000.0001) 
(PID.TID 0000.0001) Start initial hydrostatic pressure computation
(PID.TID 0000.0001) Pressure is predetermined for buoyancyRelation OCEANIC
(PID.TID 0000.0001) 
(PID.TID 0000.0001)  MDSREADFIELD: opening global file: windx.sin_y
(PID.TID 0000.0001) // =======================================================
(PID.TID 0000.0001) // Model current state
(PID.TID 0000.0001) // =======================================================
(PID.TID 0000.0001) 
 cg2d: Sum(rhs),rhsMax =   0.00000000000000E+00  0.00000000000000E+00
 cg2d: Sum(rhs),rhsMax =   4.68375338513738E-16  2.62483626325265E-03
 cg2d: Sum(rhs),rhsMax =   6.40112962635442E-16  5.13362633360820E-03
 cg2d: Sum(rhs),rhsMax =   3.20923843055709E-16  7.16168459273041E-03
 cg2d: Sum(rhs),rhsMax =   2.77555756156289E-17  9.29466755966813E-03
 cg2d: Sum(rhs),rhsMax =  -4.68375338513738E-16  1.15304356795741E-02
 cg2d: Sum(rhs),rhsMax =  -1.56992474575901E-16  1.37809802350206E-02
 cg2d: Sum(rhs),rhsMax =   5.20417042793042E-17  1.60011247463731E-02
 cg2d: Sum(rhs),rhsMax =  -9.71445146547012E-17  1.82027337911403E-02
 cg2d: Sum(rhs),rhsMax =   6.93889390390723E-17  2.04493560871249E-02
 cg2d: Sum(rhs),rhsMax =   3.19189119579733E-16  2.25706027740255E-02
 cg2d: Sum(rhs),rhsMax =  -5.55111512312578E-17  2.45301657166007E-02
 cg2d: Sum(rhs),rhsMax =   4.16333634234434E-16  2.63097944383456E-02
 cg2d: Sum(rhs),rhsMax =   6.66133814775094E-16  2.79110497232177E-02
 cg2d: Sum(rhs),rhsMax =   1.11022302462516E-15  2.93538602407280E-02
 cg2d: Sum(rhs),rhsMax =   7.84095011141517E-16  3.06720439143683E-02
 cg2d: Sum(rhs),rhsMax =   9.22872889219661E-16  3.19067816657364E-02
 cg2d: Sum(rhs),rhsMax =   7.00828284294630E-16  3.30992667700594E-02
 cg2d: Sum(rhs),rhsMax =   6.93889390390723E-16  3.42837432918992E-02
 cg2d: Sum(rhs),rhsMax =   1.02001740387436E-15  3.54819650876621E-02
 cg2d: Sum(rhs),rhsMax =   1.81105130891979E-15  3.66998058570408E-02
 cg2d: Sum(rhs),rhsMax =   2.44249065417534E-15  3.79264045634658E-02
 cg2d: Sum(rhs),rhsMax =   2.10248485288389E-15  3.91358858537902E-02
 cg2d: Sum(rhs),rhsMax =   2.23432383705813E-15  4.02913639431252E-02
 cg2d: Sum(rhs),rhsMax =   1.98452365651747E-15  4.13506294860578E-02
 cg2d: Sum(rhs),rhsMax =   1.79023462720806E-15  4.22726606897303E-02
 cg2d: Sum(rhs),rhsMax =   1.08246744900953E-15  4.30239435501142E-02
 cg2d: Sum(rhs),rhsMax =   1.79023462720806E-15  4.35835862524072E-02
 cg2d: Sum(rhs),rhsMax =   1.77635683940025E-15  4.39463978836123E-02
 cg2d: Sum(rhs),rhsMax =   1.65145674912992E-15  4.41234515001798E-02
 cg2d: Sum(rhs),rhsMax =   6.66133814775094E-16  4.41400962639608E-02
 cg2d: Sum(rhs),rhsMax =   3.33066907387547E-16  4.40318241736746E-02
 cg2d: Sum(rhs),rhsMax =   1.94289029309402E-16  4.38387397883486E-02
 cg2d: Sum(rhs),rhsMax =   1.11022302462516E-16  4.54379563998757E-02
 cg2d: Sum(rhs),rhsMax =  -8.32667268468867E-17  4.77259345427322E-02
 cg2d: Sum(rhs),rhsMax =  -2.49800180540660E-16  4.99949947044474E-02
 cg2d: Sum(rhs),rhsMax =  -2.08166817117217E-16  5.22073350737587E-02
 cg2d: Sum(rhs),rhsMax =   2.63677968348475E-16  5.43317159752388E-02
 cg2d: Sum(rhs),rhsMax =  -6.93889390390723E-17  5.63476439326246E-02
 cg2d: Sum(rhs),rhsMax =  -5.82867087928207E-16  5.82478252802144E-02
 cg2d: Sum(rhs),rhsMax =  -3.88578058618805E-16  6.00385233021109E-02
 cg2d: Sum(rhs),rhsMax =  -4.71844785465692E-16  6.17377934999718E-02
 cg2d: Sum(rhs),rhsMax =  -1.38777878078145E-16  6.33719189017891E-02
 cg2d: Sum(rhs),rhsMax =  -3.60822483003176E-16  6.49706568079523E-02
 cg2d: Sum(rhs),rhsMax =  -5.27355936696949E-16  6.65620861783037E-02
 cg2d: Sum(rhs),rhsMax =  -1.24900090270330E-15  6.81678819253597E-02
 cg2d: Sum(rhs),rhsMax =  -1.08246744900953E-15  6.97997403640464E-02
 cg2d: Sum(rhs),rhsMax =  -1.27675647831893E-15  7.14574675279555E-02
 cg2d: Sum(rhs),rhsMax =  -1.19348975147204E-15  7.31289636143426E-02
 cg2d: Sum(rhs),rhsMax =  -7.21644966006352E-16  7.47920408157883E-02
 cg2d: Sum(rhs),rhsMax =  -7.77156117237610E-16  7.64177412820164E-02
 cg2d: Sum(rhs),rhsMax =  -9.99200722162641E-16  7.79746107448102E-02
 cg2d: Sum(rhs),rhsMax =  -1.08246744900953E-15  7.94332557445165E-02
 cg2d: Sum(rhs),rhsMax =  -8.32667268468867E-16  8.07704836088626E-02
 cg2d: Sum(rhs),rhsMax =  -1.02695629777827E-15  8.19723992182850E-02
 cg2d: Sum(rhs),rhsMax =  -9.15933995315754E-16  8.30360029006767E-02
 cg2d: Sum(rhs),rhsMax =  -6.10622663543836E-16  8.39690759056610E-02
 cg2d: Sum(rhs),rhsMax =  -1.05471187339390E-15  8.47884157622057E-02
 cg2d: Sum(rhs),rhsMax =  -1.15185638804860E-15  8.55167466285203E-02
 cg2d: Sum(rhs),rhsMax =  -1.67921232474555E-15  8.61788335386965E-02
 cg2d: Sum(rhs),rhsMax =  -1.31838984174237E-15  8.67974396140751E-02
 cg2d: Sum(rhs),rhsMax =  -1.67921232474555E-15  8.73897662791229E-02
 cg2d: Sum(rhs),rhsMax =  -1.77635683940025E-15  8.79649141229035E-02
 cg2d: Sum(rhs),rhsMax =  -1.52655665885959E-15  8.85227200734956E-02
 cg2d: Sum(rhs),rhsMax =  -1.62370117351429E-15  8.90540996009040E-02
 cg2d: Sum(rhs),rhsMax =  -1.80411241501588E-15  8.95427882174877E-02
 cg2d: Sum(rhs),rhsMax =  -2.24820162486594E-15  8.99681688044535E-02
 cg2d: Sum(rhs),rhsMax =  -2.27595720048157E-15  9.03087176500250E-02
 cg2d: Sum(rhs),rhsMax =  -2.35228503342455E-15  9.05455215647969E-02
 cg2d: Sum(rhs),rhsMax =  -2.34534613952064E-15  9.06653207900439E-02
 cg2d: Sum(rhs),rhsMax =  -2.64371857738865E-15  9.06626169889137E-02
 cg2d: Sum(rhs),rhsMax =  -2.86576318231369E-15  9.05405402947219E-02
 cg2d: Sum(rhs),rhsMax =  -2.64718802434061E-15  9.03103707146436E-02
 cg2d: Sum(rhs),rhsMax =  -3.06005221162309E-15  8.99898248214748E-02
 cg2d: Sum(rhs),rhsMax =  -3.24393290007663E-15  8.96004126513334E-02
 cg2d: Sum(rhs),rhsMax =  -3.18798806797638E-15  8.91643094701256E-02
 cg2d: Sum(rhs),rhsMax =  -3.23699400617272E-15  8.87012501384962E-02
 cg2d: Sum(rhs),rhsMax =  -3.20923843055709E-15  8.82259323509517E-02
 cg2d: Sum(rhs),rhsMax =  -3.14678838542193E-15  8.77463165983687E-02
 cg2d: Sum(rhs),rhsMax =  -3.12250225675825E-15  8.72630554717345E-02
 cg2d: Sum(rhs),rhsMax =  -3.16066617322974E-15  8.67701006249279E-02
 cg2d: Sum(rhs),rhsMax =  -3.25087179398054E-15  8.62563521035518E-02
 cg2d: Sum(rhs),rhsMax =  -3.57006091356027E-15  8.57080589787923E-02
 cg2d: Sum(rhs),rhsMax =  -3.59955121265187E-15  8.51115737045871E-02
 cg2d: Sum(rhs),rhsMax =  -3.71230823859037E-15  8.44560191115827E-02
 cg2d: Sum(rhs),rhsMax =  -4.01761957036229E-15  8.37354514519737E-02
 cg2d: Sum(rhs),rhsMax =  -4.26915447437892E-15  8.29501909695762E-02
 cg2d: Sum(rhs),rhsMax =  -4.71541208857396E-15  8.21071292788796E-02
 cg2d: Sum(rhs),rhsMax =  -4.88411394661270E-15  8.12189885658192E-02
 cg2d: Sum(rhs),rhsMax =  -5.08707659330199E-15  8.03026744428656E-02
 cg2d: Sum(rhs),rhsMax =  -5.24233434440191E-15  7.93770048720978E-02
 cg2d: Sum(rhs),rhsMax =  -5.87203896618149E-15  7.84601891645700E-02
 cg2d: Sum(rhs),rhsMax =  -5.57366652831348E-15  7.75674598463431E-02
 cg2d: Sum(rhs),rhsMax =  -5.51989010055820E-15  7.67092236394104E-02
 cg2d: Sum(rhs),rhsMax =  -5.49560397189452E-15  7.58900046097747E-02
 cg2d: Sum(rhs),rhsMax =  -5.75928194024300E-15  7.51083201397743E-02
 cg2d: Sum(rhs),rhsMax =  -5.55111512312578E-15  7.43574812647081E-02
 cg2d: Sum(rhs),rhsMax =  -5.64132074387658E-15  7.36271665490250E-02
 cg2d: Sum(rhs),rhsMax =  -5.12784259498744E-15  7.29055040699215E-02
 cg2d: Sum(rhs),rhsMax =  -4.85028683883115E-15  7.21813252093423E-02
 --> objf_test(bi,bj)   = -0.849803604472161E+00
 --> objf_tracer(bi,bj) =  0.000000000000000E+00
 --> objf_atl(bi,bj)    =  0.000000000000000E+00
  local fc = -0.849803604472161E+00
 global fc = -0.849803604472161E+00
(PID.TID 0000.0001)  MDSREADFIELD: opening file: xx_depth.0000000000.001.001.data
 grad-res -------------------------------
 grad-res     0   17    2    5    1   -.849803598E+00 -.849803591E+00 -.849803604E+00
 grad-res     0   17   17   17   20   0.652647826E-04 0.652825366E-04 -.272029671E-03
(PID.TID 0000.0001)       precision_grdchk_result ADM    -8.49803597943908E-01     6.52647826414116E-05
 ph-grd  ierr ---------------------------
 ph-grd  ierr =  0, icomp =  17, ichknum =  17
(PID.TID 0000.0001)  MDSREADFIELD: opening file: adxx_depth.0000000000.001.001.data
(PID.TID 0000.0001)  MDSREADFIELD: opening file: xx_depth.0000000000.001.001.data
(PID.TID 0000.0001)  MDSREADFIELD: opening global file: walls.bigRidge
(PID.TID 0000.0001) // =======================================================
(PID.TID 0000.0001) // Field Bottom depths (ini_depths) at iteration          1
(PID.TID 0000.0001) // CMIN =         -5.000000000000000E+03
(PID.TID 0000.0001) // CMAX =         -2.000000000000000E+03
(PID.TID 0000.0001) // CINT =          1.111111111111111E+02
(PID.TID 0000.0001) // SYMBOLS (CMIN->CMAX): -abcdefghijklmnopqrstuvwxyz+
(PID.TID 0000.0001) //                  0.0: .
(PID.TID 0000.0001) // RANGE I (Lo:Hi:Step):(  -1:   7:   1)
(PID.TID 0000.0001) // RANGE J (Lo:Hi:Step):(   7:  -1:  -1)
(PID.TID 0000.0001) // RANGE K (Lo:Hi:Step):(   1:   1:   1)
(PID.TID 0000.0001) // =======================================================
(PID.TID 0000.0001) K =   1
(PID.TID 0000.0001) //
(PID.TID 0000.0001) // |--J--|*01234567
(PID.TID 0000.0001) //      7 ----+----
(PID.TID 0000.0001) //      6 .........
(PID.TID 0000.0001) //      5 ----+----
(PID.TID 0000.0001) //      4 ----+----
(PID.TID 0000.0001) //      3 ----+----
(PID.TID 0000.0001) //      2 ----+----
(PID.TID 0000.0001) //      1 .........
(PID.TID 0000.0001) //      0 ----+----
(PID.TID 0000.0001) //     -1 ----+----
(PID.TID 0000.0001) // =======================================================
(PID.TID 0000.0001) // END OF FIELD                                          =
(PID.TID 0000.0001) // =======================================================
(PID.TID 0000.0001) 
(PID.TID 0000.0001) // =======================================================
(PID.TID 0000.0001) // Field Model R_low (ini_masks_etc) at iteration          1
(PID.TID 0000.0001) // CMIN =         -5.000000000000000E+03
(PID.TID 0000.0001) // CMAX =         -2.000000000000000E+03
(PID.TID 0000.0001) // CINT =          1.111111111111111E+02
(PID.TID 0000.0001) // SYMBOLS (CMIN->CMAX): -abcdefghijklmnopqrstuvwxyz+
(PID.TID 0000.0001) //                  0.0: .
(PID.TID 0000.0001) // RANGE I (Lo:Hi:Step):(  -1:   7:   1)
(PID.TID 0000.0001) // RANGE J (Lo:Hi:Step):(   7:  -1:  -1)
(PID.TID 0000.0001) // RANGE K (Lo:Hi:Step):(   1:   1:   1)
(PID.TID 0000.0001) // =======================================================
(PID.TID 0000.0001) K =   1
(PID.TID 0000.0001) //
(PID.TID 0000.0001) // |--J--|*01234567
(PID.TID 0000.0001) //      7 ----+----
(PID.TID 0000.0001) //      6 .........
(PID.TID 0000.0001) //      5 ----+----
(PID.TID 0000.0001) //      4 ----+----
(PID.TID 0000.0001) //      3 ----+----
(PID.TID 0000.0001) //      2 ----+----
(PID.TID 0000.0001) //      1 .........
(PID.TID 0000.0001) //      0 ----+----
(PID.TID 0000.0001) //     -1 ----+----
(PID.TID 0000.0001) // =======================================================
(PID.TID 0000.0001) // END OF FIELD                                          =
(PID.TID 0000.0001) // =======================================================
(PID.TID 0000.0001) 
(PID.TID 0000.0001) // =======================================================
(PID.TID 0000.0001) // Field Model Ro_surf (ini_masks_etc) at iteration          1
(PID.TID 0000.0001) // CMIN =          2.273736754432321E-13
(PID.TID 0000.0001) // CMAX =          2.273736754432321E-13
(PID.TID 0000.0001) // CINT =          0.000000000000000E+00
(PID.TID 0000.0001) // SYMBOLS (CMIN->CMAX): -abcdefghijklmnopqrstuvwxyz+
(PID.TID 0000.0001) //                  0.0: .
(PID.TID 0000.0001) // RANGE I (Lo:Hi:Step):(  -1:   7:   1)
(PID.TID 0000.0001) // RANGE J (Lo:Hi:Step):(   7:  -1:  -1)
(PID.TID 0000.0001) // RANGE K (Lo:Hi:Step):(   1:   1:   1)
(PID.TID 0000.0001) // =======================================================
(PID.TID 0000.0001) // =======================================================
(PID.TID 0000.0001) // END OF FIELD                                          =
(PID.TID 0000.0001) // =======================================================
(PID.TID 0000.0001) 
(PID.TID 0000.0001) // =======================================================
(PID.TID 0000.0001) // Field hFacC at iteration          1
(PID.TID 0000.0001) // CMIN =          1.000000000000000E+00
(PID.TID 0000.0001) // CMAX =          1.000000000000000E+00
(PID.TID 0000.0001) // CINT =          0.000000000000000E+00
(PID.TID 0000.0001) // SYMBOLS (CMIN->CMAX): -abcdefghijklmnopqrstuvwxyz+
(PID.TID 0000.0001) //                  0.0: .
(PID.TID 0000.0001) // RANGE I (Lo:Hi:Step):(  -1:   7:   1)
(PID.TID 0000.0001) // RANGE J (Lo:Hi:Step):(   7:  -1:  -1)
(PID.TID 0000.0001) // RANGE K (Lo:Hi:Step):(   1:   1:   1)
(PID.TID 0000.0001) // =======================================================
(PID.TID 0000.0001) // =======================================================
(PID.TID 0000.0001) // END OF FIELD                                          =
(PID.TID 0000.0001) // =======================================================
(PID.TID 0000.0001) 
(PID.TID 0000.0001) // =======================================================
(PID.TID 0000.0001) // Field hFacW at iteration          1
(PID.TID 0000.0001) // CMIN =          1.000000000000000E+00
(PID.TID 0000.0001) // CMAX =          1.000000000000000E+00
(PID.TID 0000.0001) // CINT =          0.000000000000000E+00
(PID.TID 0000.0001) // SYMBOLS (CMIN->CMAX): -abcdefghijklmnopqrstuvwxyz+
(PID.TID 0000.0001) //                  0.0: .
(PID.TID 0000.0001) // RANGE I (Lo:Hi:Step):(  -1:   7:   1)
(PID.TID 0000.0001) // RANGE J (Lo:Hi:Step):(   7:  -1:  -1)
(PID.TID 0000.0001) // RANGE K (Lo:Hi:Step):(   1:   1:   1)
(PID.TID 0000.0001) // =======================================================
(PID.TID 0000.0001) // =======================================================
(PID.TID 0000.0001) // END OF FIELD                                          =
(PID.TID 0000.0001) // =======================================================
(PID.TID 0000.0001) 
(PID.TID 0000.0001) // =======================================================
(PID.TID 0000.0001) // Field hFacS at iteration          1
(PID.TID 0000.0001) // CMIN =          1.000000000000000E+00
(PID.TID 0000.0001) // CMAX =          1.000000000000000E+00
(PID.TID 0000.0001) // CINT =          0.000000000000000E+00
(PID.TID 0000.0001) // SYMBOLS (CMIN->CMAX): -abcdefghijklmnopqrstuvwxyz+
(PID.TID 0000.0001) //                  0.0: .
(PID.TID 0000.0001) // RANGE I (Lo:Hi:Step):(  -1:   7:   1)
(PID.TID 0000.0001) // RANGE J (Lo:Hi:Step):(   7:  -1:  -1)
(PID.TID 0000.0001) // RANGE K (Lo:Hi:Step):(   1:   1:   1)
(PID.TID 0000.0001) // =======================================================
(PID.TID 0000.0001) // =======================================================
(PID.TID 0000.0001) // END OF FIELD                                          =
(PID.TID 0000.0001) // =======================================================
(PID.TID 0000.0001) 
(PID.TID 0000.0001) %MON surfExpanfCori_max           =  -1.0735540000000E-04
(PID.TID 0000.0001) %MON surfExpanfCori_min           =  -1.1783060000000E-04
(PID.TID 0000.0001) %MON surfExpanfCori_mean          =  -1.1259300000000E-04
(PID.TID 0000.0001) %MON surfExpanfCori_sd            =   3.7035424771427E-06
(PID.TID 0000.0001) %MON surfExpanfCoriG_max          =  -1.0866480000000E-04
(PID.TID 0000.0001) %MON surfExpanfCoriG_min          =  -1.1914000000000E-04
(PID.TID 0000.0001) %MON surfExpanfCoriG_mean         =  -1.1390240000000E-04
(PID.TID 0000.0001) %MON surfExpanfCoriG_sd           =   3.7035424771427E-06
(PID.TID 0000.0001) %MON surfExpanfCoriCos_max        =   0.0000000000000E+00
(PID.TID 0000.0001) %MON surfExpanfCoriCos_min        =   0.0000000000000E+00
(PID.TID 0000.0001) %MON surfExpanfCoriCos_mean       =   0.0000000000000E+00
(PID.TID 0000.0001) %MON surfExpanfCoriCos_sd         =   0.0000000000000E+00
(PID.TID 0000.0001) INI_CG2D: CG2D normalisation factor =  1.9999999999999996E-04
(PID.TID 0000.0001) 
                     ctrl_depth_ini: ctrl update R_low,
                                     adding the control vector.
(PID.TID 0000.0001)  MDSREADFIELD: opening file: xx_depth.0000000000.001.001.data
(PID.TID 0000.0001) // =======================================================
(PID.TID 0000.0001) // Field Model Ro_surf (update_masks_etc) at iteration          1
(PID.TID 0000.0001) // CMIN =          2.273736754432321E-13
(PID.TID 0000.0001) // CMAX =          2.273736754432321E-13
(PID.TID 0000.0001) // CINT =          0.000000000000000E+00
(PID.TID 0000.0001) // SYMBOLS (CMIN->CMAX): -abcdefghijklmnopqrstuvwxyz+
(PID.TID 0000.0001) //                  0.0: .
(PID.TID 0000.0001) // RANGE I (Lo:Hi:Step):(  -1:   7:   1)
(PID.TID 0000.0001) // RANGE J (Lo:Hi:Step):(   7:  -1:  -1)
(PID.TID 0000.0001) // RANGE K (Lo:Hi:Step):(   1:   1:   1)
(PID.TID 0000.0001) // =======================================================
(PID.TID 0000.0001) // =======================================================
(PID.TID 0000.0001) // END OF FIELD                                          =
(PID.TID 0000.0001) // =======================================================
(PID.TID 0000.0001) 
(PID.TID 0000.0001) // =======================================================
(PID.TID 0000.0001) // Field hFacC at iteration          1
(PID.TID 0000.0001) // CMIN =          1.000000000000000E+00
(PID.TID 0000.0001) // CMAX =          1.000000000000000E+00
(PID.TID 0000.0001) // CINT =          0.000000000000000E+00
(PID.TID 0000.0001) // SYMBOLS (CMIN->CMAX): -abcdefghijklmnopqrstuvwxyz+
(PID.TID 0000.0001) //                  0.0: .
(PID.TID 0000.0001) // RANGE I (Lo:Hi:Step):(  -1:   7:   1)
(PID.TID 0000.0001) // RANGE J (Lo:Hi:Step):(   7:  -1:  -1)
(PID.TID 0000.0001) // RANGE K (Lo:Hi:Step):(   1:   1:   1)
(PID.TID 0000.0001) // =======================================================
(PID.TID 0000.0001) // =======================================================
(PID.TID 0000.0001) // END OF FIELD                                          =
(PID.TID 0000.0001) // =======================================================
(PID.TID 0000.0001) 
(PID.TID 0000.0001) // =======================================================
(PID.TID 0000.0001) // Field hFacW at iteration          1
(PID.TID 0000.0001) // CMIN =          1.000000000000000E+00
(PID.TID 0000.0001) // CMAX =          1.000000000000000E+00
(PID.TID 0000.0001) // CINT =          0.000000000000000E+00
(PID.TID 0000.0001) // SYMBOLS (CMIN->CMAX): -abcdefghijklmnopqrstuvwxyz+
(PID.TID 0000.0001) //                  0.0: .
(PID.TID 0000.0001) // RANGE I (Lo:Hi:Step):(  -1:   7:   1)
(PID.TID 0000.0001) // RANGE J (Lo:Hi:Step):(   7:  -1:  -1)
(PID.TID 0000.0001) // RANGE K (Lo:Hi:Step):(   1:   1:   1)
(PID.TID 0000.0001) // =======================================================
(PID.TID 0000.0001) // =======================================================
(PID.TID 0000.0001) // END OF FIELD                                          =
(PID.TID 0000.0001) // =======================================================
(PID.TID 0000.0001) 
(PID.TID 0000.0001) // =======================================================
(PID.TID 0000.0001) // Field hFacS at iteration          1
(PID.TID 0000.0001) // CMIN =          1.000000000000000E+00
(PID.TID 0000.0001) // CMAX =          1.000000000000000E+00
(PID.TID 0000.0001) // CINT =          0.000000000000000E+00
(PID.TID 0000.0001) // SYMBOLS (CMIN->CMAX): -abcdefghijklmnopqrstuvwxyz+
(PID.TID 0000.0001) //                  0.0: .
(PID.TID 0000.0001) // RANGE I (Lo:Hi:Step):(  -1:   7:   1)
(PID.TID 0000.0001) // RANGE J (Lo:Hi:Step):(   7:  -1:  -1)
(PID.TID 0000.0001) // RANGE K (Lo:Hi:Step):(   1:   1:   1)
(PID.TID 0000.0001) // =======================================================
(PID.TID 0000.0001) // =======================================================
(PID.TID 0000.0001) // END OF FIELD                                          =
(PID.TID 0000.0001) // =======================================================
(PID.TID 0000.0001) 
(PID.TID 0000.0001) // =======================================================
(PID.TID 0000.0001) // Field Initial Temperature at iteration          1
(PID.TID 0000.0001) // CMIN =          4.000000000000000E+00
(PID.TID 0000.0001) // CMAX =          4.000000000000000E+00
(PID.TID 0000.0001) // CINT =          0.000000000000000E+00
(PID.TID 0000.0001) // SYMBOLS (CMIN->CMAX): -abcdefghijklmnopqrstuvwxyz+
(PID.TID 0000.0001) //                  0.0: .
(PID.TID 0000.0001) // RANGE I (Lo:Hi:Step):(   1:   5:   1)
(PID.TID 0000.0001) // RANGE J (Lo:Hi:Step):(   5:   1:  -1)
(PID.TID 0000.0001) // RANGE K (Lo:Hi:Step):(   1:   1:   1)
(PID.TID 0000.0001) // =======================================================
(PID.TID 0000.0001) // =======================================================
(PID.TID 0000.0001) // END OF FIELD                                          =
(PID.TID 0000.0001) // =======================================================
(PID.TID 0000.0001) 
(PID.TID 0000.0001) // =======================================================
(PID.TID 0000.0001) // Field Initial Salinity at iteration          1
(PID.TID 0000.0001) // CMIN =          3.500000000000000E+01
(PID.TID 0000.0001) // CMAX =          3.500000000000000E+01
(PID.TID 0000.0001) // CINT =          0.000000000000000E+00
(PID.TID 0000.0001) // SYMBOLS (CMIN->CMAX): -abcdefghijklmnopqrstuvwxyz+
(PID.TID 0000.0001) //                  0.0: .
(PID.TID 0000.0001) // RANGE I (Lo:Hi:Step):(   1:   5:   1)
(PID.TID 0000.0001) // RANGE J (Lo:Hi:Step):(   5:   1:  -1)
(PID.TID 0000.0001) // RANGE K (Lo:Hi:Step):(   1:   1:   1)
(PID.TID 0000.0001) // =======================================================
(PID.TID 0000.0001) // =======================================================
(PID.TID 0000.0001) // END OF FIELD                                          =
(PID.TID 0000.0001) // =======================================================
(PID.TID 0000.0001) 
(PID.TID 0000.0001) Start initial hydrostatic pressure computation
(PID.TID 0000.0001) Pressure is predetermined for buoyancyRelation OCEANIC
(PID.TID 0000.0001) 
(PID.TID 0000.0001)  MDSREADFIELD: opening global file: windx.sin_y
(PID.TID 0000.0001) // =======================================================
(PID.TID 0000.0001) // Model current state
(PID.TID 0000.0001) // =======================================================
(PID.TID 0000.0001) 
 cg2d: Sum(rhs),rhsMax =   0.00000000000000E+00  0.00000000000000E+00
 cg2d: Sum(rhs),rhsMax =   4.68375338513738E-16  2.62483626325265E-03
 cg2d: Sum(rhs),rhsMax =   7.58941520739853E-16  5.13362633360820E-03
 cg2d: Sum(rhs),rhsMax =   5.50341022753642E-16  7.16168459379693E-03
 cg2d: Sum(rhs),rhsMax =   2.03830008427275E-16  9.29466756101032E-03
 cg2d: Sum(rhs),rhsMax =  -3.46944695195361E-17  1.15304356809765E-02
 cg2d: Sum(rhs),rhsMax =   3.91180143832770E-16  1.37809802368122E-02
 cg2d: Sum(rhs),rhsMax =   7.49400541621981E-16  1.60011247484132E-02
 cg2d: Sum(rhs),rhsMax =   1.02695629777827E-15  1.82027337880688E-02
 cg2d: Sum(rhs),rhsMax =   2.49800180540660E-16  2.04493560833488E-02
 cg2d: Sum(rhs),rhsMax =   9.29811783123569E-16  2.25706027694941E-02
 cg2d: Sum(rhs),rhsMax =   3.60822483003176E-16  2.45301657111964E-02
 cg2d: Sum(rhs),rhsMax =   8.04911692853238E-16  2.63097944318779E-02
 cg2d: Sum(rhs),rhsMax =   6.66133814775094E-16  2.79110497154145E-02
 cg2d: Sum(rhs),rhsMax =   8.88178419700125E-16  2.93538602312427E-02
 cg2d: Sum(rhs),rhsMax =   2.63677968348475E-16  3.06720439027940E-02
 cg2d: Sum(rhs),rhsMax =   3.46944695195361E-17  3.19067816516291E-02
 cg2d: Sum(rhs),rhsMax =   2.35922392732846E-16  3.30992667529637E-02
 cg2d: Sum(rhs),rhsMax =  -9.71445146547012E-17  3.42837432713746E-02
 cg2d: Sum(rhs),rhsMax =  -9.85322934354826E-16  3.54819650633056E-02
 cg2d: Sum(rhs),rhsMax =  -3.33066907387547E-16  3.66998058285013E-02
 cg2d: Sum(rhs),rhsMax =  -3.26128013483640E-16  3.79264045304517E-02
 cg2d: Sum(rhs),rhsMax =   1.11022302462516E-16  3.91358858160671E-02
 cg2d: Sum(rhs),rhsMax =  -4.57966997657877E-16  4.02913639005062E-02
 cg2d: Sum(rhs),rhsMax =  -1.16573417585641E-15  4.13506294383885E-02
 cg2d: Sum(rhs),rhsMax =  -1.20736753927986E-15  4.22726606368718E-02
 cg2d: Sum(rhs),rhsMax =  -1.70696790036118E-15  4.30239434919264E-02
 cg2d: Sum(rhs),rhsMax =  -1.38777878078145E-15  4.35835861887375E-02
 cg2d: Sum(rhs),rhsMax =  -1.08246744900953E-15  4.39463978142887E-02
 cg2d: Sum(rhs),rhsMax =  -7.91033905045424E-16  4.41234514250135E-02
 cg2d: Sum(rhs),rhsMax =  -1.66533453693773E-16  4.41400961827553E-02
 cg2d: Sum(rhs),rhsMax =  -2.63677968348475E-16  4.40318240862404E-02
 cg2d: Sum(rhs),rhsMax =  -1.38777878078145E-17  4.38387396945227E-02
 cg2d: Sum(rhs),rhsMax =   2.22044604925031E-16  4.54379562968689E-02
 cg2d: Sum(rhs),rhsMax =   4.99600361081320E-16  4.77259344064853E-02
 cg2d: Sum(rhs),rhsMax =   7.63278329429795E-16  4.99949945319393E-02
 cg2d: Sum(rhs),rhsMax =   3.05311331771918E-16  5.22073348619848E-02
 cg2d: Sum(rhs),rhsMax =   6.93889390390723E-16  5.43317157212395E-02
 cg2d: Sum(rhs),rhsMax =   9.29811783123569E-16  5.63476436335101E-02
 cg2d: Sum(rhs),rhsMax =   7.49400541621981E-16  5.82478249331889E-02
 cg2d: Sum(rhs),rhsMax =   6.10622663543836E-16  6.00385229044913E-02
 cg2d: Sum(rhs),rhsMax =   5.82867087928207E-16  6.17377930492034E-02
 cg2d: Sum(rhs),rhsMax =   7.77156117237610E-16  6.33719183954556E-02
 cg2d: Sum(rhs),rhsMax =   9.15933995315754E-16  6.49706562437825E-02
 cg2d: Sum(rhs),rhsMax =   6.93889390390723E-16  6.65620855541739E-02
 cg2d: Sum(rhs),rhsMax =   1.33226762955019E-15  6.81678812392931E-02
 cg2d: Sum(rhs),rhsMax =   9.99200722162641E-16  6.97997396142105E-02
 cg2d: Sum(rhs),rhsMax =   1.22124532708767E-15  7.14574667126595E-02
 cg2d: Sum(rhs),rhsMax =   1.08246744900953E-15  7.31289627320342E-02
 cg2d: Sum(rhs),rhsMax =   1.19348975147204E-15  7.47920398650521E-02
 cg2d: Sum(rhs),rhsMax =   1.22124532708767E-15  7.64177402615734E-02
 cg2d: Sum(rhs),rhsMax =   1.11022302462516E-15  7.79746096535178E-02
 cg2d: Sum(rhs),rhsMax =   1.13797860024079E-15  7.94332545813702E-02
 cg2d: Sum(rhs),rhsMax =   6.93889390390723E-16  8.07704823729972E-02
 cg2d: Sum(rhs),rhsMax =   4.99600361081320E-16  8.19723979089752E-02
 cg2d: Sum(rhs),rhsMax =   1.13797860024079E-15  8.30360015173368E-02
 cg2d: Sum(rhs),rhsMax =   1.67921232474555E-15  8.39690744478434E-02
 cg2d: Sum(rhs),rhsMax =   1.65145674912992E-15  8.47884142295973E-02
 cg2d: Sum(rhs),rhsMax =   1.52655665885959E-15  8.55167450209382E-02
 cg2d: Sum(rhs),rhsMax =   1.30451205393456E-15  8.61788318560816E-02
 cg2d: Sum(rhs),rhsMax =   1.54043444666740E-15  8.67974378564866E-02
 cg2d: Sum(rhs),rhsMax =   1.58206781009085E-15  8.73897644467312E-02
 cg2d: Sum(rhs),rhsMax =   1.65145674912992E-15  8.79649122159853E-02
 cg2d: Sum(rhs),rhsMax =   1.17961196366423E-15  8.85227180924293E-02
 cg2d: Sum(rhs),rhsMax =   1.27675647831893E-15  8.90540975461683E-02
 cg2d: Sum(rhs),rhsMax =   1.38777878078145E-15  8.95427860896610E-02
 cg2d: Sum(rhs),rhsMax =   1.59594559789866E-15  8.99681666042160E-02
 cg2d: Sum(rhs),rhsMax =   1.53349555276350E-15  9.03087153781621E-02
 cg2d: Sum(rhs),rhsMax =   1.37390099297363E-15  9.05455192222029E-02
 cg2d: Sum(rhs),rhsMax =   1.52655665885959E-15  9.06653183777258E-02
 cg2d: Sum(rhs),rhsMax =   1.98452365651747E-15  9.06626145079944E-02
 cg2d: Sum(rhs),rhsMax =   1.79717352111197E-15  9.05405377464417E-02
 cg2d: Sum(rhs),rhsMax =   2.01921812603700E-15  9.03103681003599E-02
 cg2d: Sum(rhs),rhsMax =   1.82492909672760E-15  8.99898221426603E-02
 cg2d: Sum(rhs),rhsMax =   1.90646110009851E-15  8.96004099095713E-02
 cg2d: Sum(rhs),rhsMax =   2.08730602246909E-15  8.91643066671052E-02
 cg2d: Sum(rhs),rhsMax =   2.05217787208056E-15  8.87012472760058E-02
 cg2d: Sum(rhs),rhsMax =   2.10248485288389E-15  8.82259294308716E-02
 cg2d: Sum(rhs),rhsMax =   2.05738204250849E-15  8.77463136226657E-02
 cg2d: Sum(rhs),rhsMax =   1.81452075587174E-15  8.72630524424562E-02
 cg2d: Sum(rhs),rhsMax =   1.38777878078145E-15  8.67700975441982E-02
 cg2d: Sum(rhs),rhsMax =   1.00613961606655E-15  8.62563489735686E-02
 cg2d: Sum(rhs),rhsMax =   1.07379383162964E-15  8.57080558018260E-02
 cg2d: Sum(rhs),rhsMax =   9.54097911787244E-16  8.51115704829789E-02
 cg2d: Sum(rhs),rhsMax =   9.55832635263221E-16  8.44560158477446E-02
 cg2d: Sum(rhs),rhsMax =   1.25420507313123E-15  8.37354481483859E-02
 cg2d: Sum(rhs),rhsMax =   1.11022302462516E-15  8.29501876287846E-02
 cg2d: Sum(rhs),rhsMax =   9.86190296092815E-16  8.21071259034906E-02
 cg2d: Sum(rhs),rhsMax =   1.35655375821386E-15  8.12189851584931E-02
 cg2d: Sum(rhs),rhsMax =   1.69135538907739E-15  8.03026710063071E-02
 cg2d: Sum(rhs),rhsMax =   1.81625547934772E-15  7.93770014090446E-02
 cg2d: Sum(rhs),rhsMax =   2.01748340256103E-15  7.84601856777808E-02
 cg2d: Sum(rhs),rhsMax =   1.88217497143484E-15  7.75674563385834E-02
 cg2d: Sum(rhs),rhsMax =   2.43208231331948E-15  7.67092201134399E-02
 cg2d: Sum(rhs),rhsMax =   2.60555466091716E-15  7.58900010683333E-02
 cg2d: Sum(rhs),rhsMax =   2.76861866765898E-15  7.51083165855713E-02
 cg2d: Sum(rhs),rhsMax =   2.74780198594726E-15  7.43574777004122E-02
 cg2d: Sum(rhs),rhsMax =   2.65759636519647E-15  7.36271629772562E-02
 cg2d: Sum(rhs),rhsMax =   3.46250805804971E-15  7.29055004932454E-02
 cg2d: Sum(rhs),rhsMax =   3.20576898360514E-15  7.21813216302659E-02
 --> objf_test(bi,bj)   = -0.849803563131148E+00
 --> objf_tracer(bi,bj) =  0.000000000000000E+00
 --> objf_atl(bi,bj)    =  0.000000000000000E+00
  local fc = -0.849803563131148E+00
 global fc = -0.849803563131148E+00
 ph-check fcpertplus =  -0.849803563
(PID.TID 0000.0001)  MDSREADFIELD: opening file: xx_depth.0000000000.001.001.data
 ph-check fcpertminus =  -0.849803598
(PID.TID 0000.0001)  MDSREADFIELD: opening file: xx_depth.0000000000.001.001.data
(PID.TID 0000.0001)  MDSREADFIELD: opening global file: walls.bigRidge
(PID.TID 0000.0001) // =======================================================
(PID.TID 0000.0001) // Field Bottom depths (ini_depths) at iteration          1
(PID.TID 0000.0001) // CMIN =         -5.000000000000000E+03
(PID.TID 0000.0001) // CMAX =         -2.000000000000000E+03
(PID.TID 0000.0001) // CINT =          1.111111111111111E+02
(PID.TID 0000.0001) // SYMBOLS (CMIN->CMAX): -abcdefghijklmnopqrstuvwxyz+
(PID.TID 0000.0001) //                  0.0: .
(PID.TID 0000.0001) // RANGE I (Lo:Hi:Step):(  -1:   7:   1)
(PID.TID 0000.0001) // RANGE J (Lo:Hi:Step):(   7:  -1:  -1)
(PID.TID 0000.0001) // RANGE K (Lo:Hi:Step):(   1:   1:   1)
(PID.TID 0000.0001) // =======================================================
(PID.TID 0000.0001) K =   1
(PID.TID 0000.0001) //
(PID.TID 0000.0001) // |--J--|*01234567
(PID.TID 0000.0001) //      7 ----+----
(PID.TID 0000.0001) //      6 .........
(PID.TID 0000.0001) //      5 ----+----
(PID.TID 0000.0001) //      4 ----+----
(PID.TID 0000.0001) //      3 ----+----
(PID.TID 0000.0001) //      2 ----+----
(PID.TID 0000.0001) //      1 .........
(PID.TID 0000.0001) //      0 ----+----
(PID.TID 0000.0001) //     -1 ----+----
(PID.TID 0000.0001) // =======================================================
(PID.TID 0000.0001) // END OF FIELD                                          =
(PID.TID 0000.0001) // =======================================================
(PID.TID 0000.0001) 
(PID.TID 0000.0001) // =======================================================
(PID.TID 0000.0001) // Field Model R_low (ini_masks_etc) at iteration          1
(PID.TID 0000.0001) // CMIN =         -5.000000000000000E+03
(PID.TID 0000.0001) // CMAX =         -2.000000000000000E+03
(PID.TID 0000.0001) // CINT =          1.111111111111111E+02
(PID.TID 0000.0001) // SYMBOLS (CMIN->CMAX): -abcdefghijklmnopqrstuvwxyz+
(PID.TID 0000.0001) //                  0.0: .
(PID.TID 0000.0001) // RANGE I (Lo:Hi:Step):(  -1:   7:   1)
(PID.TID 0000.0001) // RANGE J (Lo:Hi:Step):(   7:  -1:  -1)
(PID.TID 0000.0001) // RANGE K (Lo:Hi:Step):(   1:   1:   1)
(PID.TID 0000.0001) // =======================================================
(PID.TID 0000.0001) K =   1
(PID.TID 0000.0001) //
(PID.TID 0000.0001) // |--J--|*01234567
(PID.TID 0000.0001) //      7 ----+----
(PID.TID 0000.0001) //      6 .........
(PID.TID 0000.0001) //      5 ----+----
(PID.TID 0000.0001) //      4 ----+----
(PID.TID 0000.0001) //      3 ----+----
(PID.TID 0000.0001) //      2 ----+----
(PID.TID 0000.0001) //      1 .........
(PID.TID 0000.0001) //      0 ----+----
(PID.TID 0000.0001) //     -1 ----+----
(PID.TID 0000.0001) // =======================================================
(PID.TID 0000.0001) // END OF FIELD                                          =
(PID.TID 0000.0001) // =======================================================
(PID.TID 0000.0001) 
(PID.TID 0000.0001) // =======================================================
(PID.TID 0000.0001) // Field Model Ro_surf (ini_masks_etc) at iteration          1
(PID.TID 0000.0001) // CMIN =          2.273736754432321E-13
(PID.TID 0000.0001) // CMAX =          2.273736754432321E-13
(PID.TID 0000.0001) // CINT =          0.000000000000000E+00
(PID.TID 0000.0001) // SYMBOLS (CMIN->CMAX): -abcdefghijklmnopqrstuvwxyz+
(PID.TID 0000.0001) //                  0.0: .
(PID.TID 0000.0001) // RANGE I (Lo:Hi:Step):(  -1:   7:   1)
(PID.TID 0000.0001) // RANGE J (Lo:Hi:Step):(   7:  -1:  -1)
(PID.TID 0000.0001) // RANGE K (Lo:Hi:Step):(   1:   1:   1)
(PID.TID 0000.0001) // =======================================================
(PID.TID 0000.0001) // =======================================================
(PID.TID 0000.0001) // END OF FIELD                                          =
(PID.TID 0000.0001) // =======================================================
(PID.TID 0000.0001) 
(PID.TID 0000.0001) // =======================================================
(PID.TID 0000.0001) // Field hFacC at iteration          1
(PID.TID 0000.0001) // CMIN =          1.000000000000000E+00
(PID.TID 0000.0001) // CMAX =          1.000000000000000E+00
(PID.TID 0000.0001) // CINT =          0.000000000000000E+00
(PID.TID 0000.0001) // SYMBOLS (CMIN->CMAX): -abcdefghijklmnopqrstuvwxyz+
(PID.TID 0000.0001) //                  0.0: .
(PID.TID 0000.0001) // RANGE I (Lo:Hi:Step):(  -1:   7:   1)
(PID.TID 0000.0001) // RANGE J (Lo:Hi:Step):(   7:  -1:  -1)
(PID.TID 0000.0001) // RANGE K (Lo:Hi:Step):(   1:   1:   1)
(PID.TID 0000.0001) // =======================================================
(PID.TID 0000.0001) // =======================================================
(PID.TID 0000.0001) // END OF FIELD                                          =
(PID.TID 0000.0001) // =======================================================
(PID.TID 0000.0001) 
(PID.TID 0000.0001) // =======================================================
(PID.TID 0000.0001) // Field hFacW at iteration          1
(PID.TID 0000.0001) // CMIN =          1.000000000000000E+00
(PID.TID 0000.0001) // CMAX =          1.000000000000000E+00
(PID.TID 0000.0001) // CINT =          0.000000000000000E+00
(PID.TID 0000.0001) // SYMBOLS (CMIN->CMAX): -abcdefghijklmnopqrstuvwxyz+
(PID.TID 0000.0001) //                  0.0: .
(PID.TID 0000.0001) // RANGE I (Lo:Hi:Step):(  -1:   7:   1)
(PID.TID 0000.0001) // RANGE J (Lo:Hi:Step):(   7:  -1:  -1)
(PID.TID 0000.0001) // RANGE K (Lo:Hi:Step):(   1:   1:   1)
(PID.TID 0000.0001) // =======================================================
(PID.TID 0000.0001) // =======================================================
(PID.TID 0000.0001) // END OF FIELD                                          =
(PID.TID 0000.0001) // =======================================================
(PID.TID 0000.0001) 
(PID.TID 0000.0001) // =======================================================
(PID.TID 0000.0001) // Field hFacS at iteration          1
(PID.TID 0000.0001) // CMIN =          1.000000000000000E+00
(PID.TID 0000.0001) // CMAX =          1.000000000000000E+00
(PID.TID 0000.0001) // CINT =          0.000000000000000E+00
(PID.TID 0000.0001) // SYMBOLS (CMIN->CMAX): -abcdefghijklmnopqrstuvwxyz+
(PID.TID 0000.0001) //                  0.0: .
(PID.TID 0000.0001) // RANGE I (Lo:Hi:Step):(  -1:   7:   1)
(PID.TID 0000.0001) // RANGE J (Lo:Hi:Step):(   7:  -1:  -1)
(PID.TID 0000.0001) // RANGE K (Lo:Hi:Step):(   1:   1:   1)
(PID.TID 0000.0001) // =======================================================
(PID.TID 0000.0001) // =======================================================
(PID.TID 0000.0001) // END OF FIELD                                          =
(PID.TID 0000.0001) // =======================================================
(PID.TID 0000.0001) 
(PID.TID 0000.0001) %MON surfExpanfCori_max           =  -1.0735540000000E-04
(PID.TID 0000.0001) %MON surfExpanfCori_min           =  -1.1783060000000E-04
(PID.TID 0000.0001) %MON surfExpanfCori_mean          =  -1.1259300000000E-04
(PID.TID 0000.0001) %MON surfExpanfCori_sd            =   3.7035424771427E-06
(PID.TID 0000.0001) %MON surfExpanfCoriG_max          =  -1.0866480000000E-04
(PID.TID 0000.0001) %MON surfExpanfCoriG_min          =  -1.1914000000000E-04
(PID.TID 0000.0001) %MON surfExpanfCoriG_mean         =  -1.1390240000000E-04
(PID.TID 0000.0001) %MON surfExpanfCoriG_sd           =   3.7035424771427E-06
(PID.TID 0000.0001) %MON surfExpanfCoriCos_max        =   0.0000000000000E+00
(PID.TID 0000.0001) %MON surfExpanfCoriCos_min        =   0.0000000000000E+00
(PID.TID 0000.0001) %MON surfExpanfCoriCos_mean       =   0.0000000000000E+00
(PID.TID 0000.0001) %MON surfExpanfCoriCos_sd         =   0.0000000000000E+00
(PID.TID 0000.0001) INI_CG2D: CG2D normalisation factor =  1.9999999999999996E-04
(PID.TID 0000.0001) 
                     ctrl_depth_ini: ctrl update R_low,
                                     adding the control vector.
(PID.TID 0000.0001)  MDSREADFIELD: opening file: xx_depth.0000000000.001.001.data
(PID.TID 0000.0001) // =======================================================
(PID.TID 0000.0001) // Field Model Ro_surf (update_masks_etc) at iteration          1
(PID.TID 0000.0001) // CMIN =          2.273736754432321E-13
(PID.TID 0000.0001) // CMAX =          2.273736754432321E-13
(PID.TID 0000.0001) // CINT =          0.000000000000000E+00
(PID.TID 0000.0001) // SYMBOLS (CMIN->CMAX): -abcdefghijklmnopqrstuvwxyz+
(PID.TID 0000.0001) //                  0.0: .
(PID.TID 0000.0001) // RANGE I (Lo:Hi:Step):(  -1:   7:   1)
(PID.TID 0000.0001) // RANGE J (Lo:Hi:Step):(   7:  -1:  -1)
(PID.TID 0000.0001) // RANGE K (Lo:Hi:Step):(   1:   1:   1)
(PID.TID 0000.0001) // =======================================================
(PID.TID 0000.0001) // =======================================================
(PID.TID 0000.0001) // END OF FIELD                                          =
(PID.TID 0000.0001) // =======================================================
(PID.TID 0000.0001) 
(PID.TID 0000.0001) // =======================================================
(PID.TID 0000.0001) // Field hFacC at iteration          1
(PID.TID 0000.0001) // CMIN =          1.000000000000000E+00
(PID.TID 0000.0001) // CMAX =          1.000000000000000E+00
(PID.TID 0000.0001) // CINT =          0.000000000000000E+00
(PID.TID 0000.0001) // SYMBOLS (CMIN->CMAX): -abcdefghijklmnopqrstuvwxyz+
(PID.TID 0000.0001) //                  0.0: .
(PID.TID 0000.0001) // RANGE I (Lo:Hi:Step):(  -1:   7:   1)
(PID.TID 0000.0001) // RANGE J (Lo:Hi:Step):(   7:  -1:  -1)
(PID.TID 0000.0001) // RANGE K (Lo:Hi:Step):(   1:   1:   1)
(PID.TID 0000.0001) // =======================================================
(PID.TID 0000.0001) // =======================================================
(PID.TID 0000.0001) // END OF FIELD                                          =
(PID.TID 0000.0001) // =======================================================
(PID.TID 0000.0001) 
(PID.TID 0000.0001) // =======================================================
(PID.TID 0000.0001) // Field hFacW at iteration          1
(PID.TID 0000.0001) // CMIN =          1.000000000000000E+00
(PID.TID 0000.0001) // CMAX =          1.000000000000000E+00
(PID.TID 0000.0001) // CINT =          0.000000000000000E+00
(PID.TID 0000.0001) // SYMBOLS (CMIN->CMAX): -abcdefghijklmnopqrstuvwxyz+
(PID.TID 0000.0001) //                  0.0: .
(PID.TID 0000.0001) // RANGE I (Lo:Hi:Step):(  -1:   7:   1)
(PID.TID 0000.0001) // RANGE J (Lo:Hi:Step):(   7:  -1:  -1)
(PID.TID 0000.0001) // RANGE K (Lo:Hi:Step):(   1:   1:   1)
(PID.TID 0000.0001) // =======================================================
(PID.TID 0000.0001) // =======================================================
(PID.TID 0000.0001) // END OF FIELD                                          =
(PID.TID 0000.0001) // =======================================================
(PID.TID 0000.0001) 
(PID.TID 0000.0001) // =======================================================
(PID.TID 0000.0001) // Field hFacS at iteration          1
(PID.TID 0000.0001) // CMIN =          1.000000000000000E+00
(PID.TID 0000.0001) // CMAX =          1.000000000000000E+00
(PID.TID 0000.0001) // CINT =          0.000000000000000E+00
(PID.TID 0000.0001) // SYMBOLS (CMIN->CMAX): -abcdefghijklmnopqrstuvwxyz+
(PID.TID 0000.0001) //                  0.0: .
(PID.TID 0000.0001) // RANGE I (Lo:Hi:Step):(  -1:   7:   1)
(PID.TID 0000.0001) // RANGE J (Lo:Hi:Step):(   7:  -1:  -1)
(PID.TID 0000.0001) // RANGE K (Lo:Hi:Step):(   1:   1:   1)
(PID.TID 0000.0001) // =======================================================
(PID.TID 0000.0001) // =======================================================
(PID.TID 0000.0001) // END OF FIELD                                          =
(PID.TID 0000.0001) // =======================================================
(PID.TID 0000.0001) 
(PID.TID 0000.0001) // =======================================================
(PID.TID 0000.0001) // Field Initial Temperature at iteration          1
(PID.TID 0000.0001) // CMIN =          4.000000000000000E+00
(PID.TID 0000.0001) // CMAX =          4.000000000000000E+00
(PID.TID 0000.0001) // CINT =          0.000000000000000E+00
(PID.TID 0000.0001) // SYMBOLS (CMIN->CMAX): -abcdefghijklmnopqrstuvwxyz+
(PID.TID 0000.0001) //                  0.0: .
(PID.TID 0000.0001) // RANGE I (Lo:Hi:Step):(   1:   5:   1)
(PID.TID 0000.0001) // RANGE J (Lo:Hi:Step):(   5:   1:  -1)
(PID.TID 0000.0001) // RANGE K (Lo:Hi:Step):(   1:   1:   1)
(PID.TID 0000.0001) // =======================================================
(PID.TID 0000.0001) // =======================================================
(PID.TID 0000.0001) // END OF FIELD                                          =
(PID.TID 0000.0001) // =======================================================
(PID.TID 0000.0001) 
(PID.TID 0000.0001) // =======================================================
(PID.TID 0000.0001) // Field Initial Salinity at iteration          1
(PID.TID 0000.0001) // CMIN =          3.500000000000000E+01
(PID.TID 0000.0001) // CMAX =          3.500000000000000E+01
(PID.TID 0000.0001) // CINT =          0.000000000000000E+00
(PID.TID 0000.0001) // SYMBOLS (CMIN->CMAX): -abcdefghijklmnopqrstuvwxyz+
(PID.TID 0000.0001) //                  0.0: .
(PID.TID 0000.0001) // RANGE I (Lo:Hi:Step):(   1:   5:   1)
(PID.TID 0000.0001) // RANGE J (Lo:Hi:Step):(   5:   1:  -1)
(PID.TID 0000.0001) // RANGE K (Lo:Hi:Step):(   1:   1:   1)
(PID.TID 0000.0001) // =======================================================
(PID.TID 0000.0001) // =======================================================
(PID.TID 0000.0001) // END OF FIELD                                          =
(PID.TID 0000.0001) // =======================================================
(PID.TID 0000.0001) 
(PID.TID 0000.0001) Start initial hydrostatic pressure computation
(PID.TID 0000.0001) Pressure is predetermined for buoyancyRelation OCEANIC
(PID.TID 0000.0001) 
(PID.TID 0000.0001)  MDSREADFIELD: opening global file: windx.sin_y
(PID.TID 0000.0001) // =======================================================
(PID.TID 0000.0001) // Model current state
(PID.TID 0000.0001) // =======================================================
(PID.TID 0000.0001) 
 cg2d: Sum(rhs),rhsMax =   0.00000000000000E+00  0.00000000000000E+00
 cg2d: Sum(rhs),rhsMax =   4.68375338513738E-16  2.62483626325265E-03
 cg2d: Sum(rhs),rhsMax =   7.59808882477842E-16  5.13362633360820E-03
 cg2d: Sum(rhs),rhsMax =   5.05671893247239E-16  7.16168459181923E-03
 cg2d: Sum(rhs),rhsMax =   8.50014503228635E-17  9.29466755870995E-03
 cg2d: Sum(rhs),rhsMax =   9.71445146547012E-17  1.15304356785256E-02
 cg2d: Sum(rhs),rhsMax =   1.62630325872826E-16  1.37809802339618E-02
 cg2d: Sum(rhs),rhsMax =  -3.78169717762944E-16  1.60011247454445E-02
 cg2d: Sum(rhs),rhsMax =  -1.24900090270330E-16  1.82027337943764E-02
 cg2d: Sum(rhs),rhsMax =   5.82867087928207E-16  2.04493560909614E-02
 cg2d: Sum(rhs),rhsMax =   1.38777878078145E-15  2.25706027783255E-02
 cg2d: Sum(rhs),rhsMax =   1.37390099297363E-15  2.45301657212076E-02
 cg2d: Sum(rhs),rhsMax =   1.38777878078145E-15  2.63097944431074E-02
 cg2d: Sum(rhs),rhsMax =   1.49880108324396E-15  2.79110497280140E-02
 cg2d: Sum(rhs),rhsMax =   1.31145094783847E-15  2.93538602454900E-02
 cg2d: Sum(rhs),rhsMax =   1.36696209906972E-15  3.06720439190905E-02
 cg2d: Sum(rhs),rhsMax =   1.04083408558608E-15  3.19067816704781E-02
 cg2d: Sum(rhs),rhsMax =   1.08940634291343E-15  3.30992667749361E-02
 cg2d: Sum(rhs),rhsMax =   6.86950496486816E-16  3.42837432970655E-02
 cg2d: Sum(rhs),rhsMax =   6.73072708679001E-16  3.54819650932897E-02
 cg2d: Sum(rhs),rhsMax =   9.64506252643105E-16  3.66998058632931E-02
 cg2d: Sum(rhs),rhsMax =   3.74700270810990E-16  3.79264045704763E-02
 cg2d: Sum(rhs),rhsMax =   9.43689570931383E-16  3.91358858616450E-02
 cg2d: Sum(rhs),rhsMax =   4.30211422042248E-16  4.02913639518541E-02
 cg2d: Sum(rhs),rhsMax =  -4.85722573273506E-16  4.13506294956334E-02
 cg2d: Sum(rhs),rhsMax =  -6.80011602582908E-16  4.22726607000765E-02
 cg2d: Sum(rhs),rhsMax =  -4.30211422042248E-16  4.30239435611223E-02
 cg2d: Sum(rhs),rhsMax =  -5.55111512312578E-16  4.35835862639551E-02
 cg2d: Sum(rhs),rhsMax =  -6.10622663543836E-16  4.39463978955856E-02
 cg2d: Sum(rhs),rhsMax =  -1.05471187339390E-15  4.41234515124907E-02
 cg2d: Sum(rhs),rhsMax =  -8.18789480661053E-16  4.41400962765615E-02
 cg2d: Sum(rhs),rhsMax =  -8.32667268468867E-16  4.40318241865636E-02
 cg2d: Sum(rhs),rhsMax =  -7.77156117237610E-16  4.38387398015693E-02
 cg2d: Sum(rhs),rhsMax =  -5.41233724504764E-16  4.54379565900402E-02
 cg2d: Sum(rhs),rhsMax =  -2.63677968348475E-16  4.77259347598101E-02
 cg2d: Sum(rhs),rhsMax =  -3.19189119579733E-16  4.99949949494990E-02
 cg2d: Sum(rhs),rhsMax =  -4.16333634234434E-16  5.22073353477885E-02
 cg2d: Sum(rhs),rhsMax =   5.55111512312578E-17  5.43317162792348E-02
 cg2d: Sum(rhs),rhsMax =  -4.71844785465692E-16  5.63476442675866E-02
 cg2d: Sum(rhs),rhsMax =  -7.21644966006352E-16  5.82478256471663E-02
 cg2d: Sum(rhs),rhsMax =  -2.77555756156289E-16  6.00385237020942E-02
 cg2d: Sum(rhs),rhsMax =  -6.38378239159465E-16  6.17377939340213E-02
 cg2d: Sum(rhs),rhsMax =  -9.15933995315754E-16  6.33719193708944E-02
 cg2d: Sum(rhs),rhsMax =  -8.60422844084496E-16  6.49706573130123E-02
 cg2d: Sum(rhs),rhsMax =  -5.27355936696949E-16  6.65620867200796E-02
 cg2d: Sum(rhs),rhsMax =  -2.77555756156289E-16  6.81678825044367E-02
 cg2d: Sum(rhs),rhsMax =  -1.66533453693773E-16  6.97997409808075E-02
 cg2d: Sum(rhs),rhsMax =  -5.55111512312578E-17  7.14574681825743E-02
 cg2d: Sum(rhs),rhsMax =  -2.22044604925031E-16  7.31289643067952E-02
 cg2d: Sum(rhs),rhsMax =   8.32667268468867E-17  7.47920415458817E-02
 cg2d: Sum(rhs),rhsMax =  -8.32667268468867E-17  7.64177420494313E-02
 cg2d: Sum(rhs),rhsMax =   1.38777878078145E-16  7.79746115491505E-02
 cg2d: Sum(rhs),rhsMax =  -1.94289029309402E-16  7.94332565853591E-02
 cg2d: Sum(rhs),rhsMax =   2.49800180540660E-16  8.07704844858007E-02
 cg2d: Sum(rhs),rhsMax =   1.94289029309402E-16  8.19724001309576E-02
 cg2d: Sum(rhs),rhsMax =   2.77555756156289E-16  8.30360038487833E-02
 cg2d: Sum(rhs),rhsMax =   8.60422844084496E-16  8.39690768889574E-02
 cg2d: Sum(rhs),rhsMax =   6.93889390390723E-16  8.47884167804830E-02
 cg2d: Sum(rhs),rhsMax =   2.63677968348475E-16  8.55167476815728E-02
 cg2d: Sum(rhs),rhsMax =   4.44089209850063E-16  8.61788346262814E-02
 cg2d: Sum(rhs),rhsMax =   3.33066907387547E-16  8.67974407358726E-02
 cg2d: Sum(rhs),rhsMax =   2.22044604925031E-16  8.73897674347020E-02
 cg2d: Sum(rhs),rhsMax =   1.24900090270330E-16  8.79649153116987E-02
 cg2d: Sum(rhs),rhsMax =  -4.16333634234434E-16  8.85227212947981E-02
 cg2d: Sum(rhs),rhsMax =  -5.82867087928207E-16  8.90541008538684E-02
 cg2d: Sum(rhs),rhsMax =  -4.16333634234434E-16  8.95427895011516E-02
 cg2d: Sum(rhs),rhsMax =  -1.38777878078145E-17  8.99681701177682E-02
 cg2d: Sum(rhs),rhsMax =  -1.59594559789866E-16  9.03087189918910E-02
 cg2d: Sum(rhs),rhsMax =  -6.93889390390723E-18  9.05455229340994E-02
 cg2d: Sum(rhs),rhsMax =   1.38777878078145E-17  9.06653221856819E-02
 cg2d: Sum(rhs),rhsMax =   1.38777878078145E-17  9.06626184098205E-02
 cg2d: Sum(rhs),rhsMax =   2.49800180540660E-16  9.05405417398718E-02
 cg2d: Sum(rhs),rhsMax =   1.14491749414469E-16  9.03103721830456E-02
 cg2d: Sum(rhs),rhsMax =  -2.28983498828939E-16  8.99898263121558E-02
 cg2d: Sum(rhs),rhsMax =  -3.41740524767431E-16  8.96004141633115E-02
 cg2d: Sum(rhs),rhsMax =  -7.23379689482329E-16  8.91643110023806E-02
 cg2d: Sum(rhs),rhsMax =  -4.00721122950642E-16  8.87012516899418E-02
 cg2d: Sum(rhs),rhsMax =  -8.39606162372775E-16  8.82259339204118E-02
 cg2d: Sum(rhs),rhsMax =  -9.88792381306780E-16  8.77463181845656E-02
 cg2d: Sum(rhs),rhsMax =  -1.04777297948999E-15  8.72630570732875E-02
 cg2d: Sum(rhs),rhsMax =  -1.29063426612674E-15  8.67701022403632E-02
 cg2d: Sum(rhs),rhsMax =  -1.56819002228303E-15  8.62563537313244E-02
 cg2d: Sum(rhs),rhsMax =  -1.62717062046625E-15  8.57080606173138E-02
 cg2d: Sum(rhs),rhsMax =  -1.61155810918245E-15  8.51115753522568E-02
 cg2d: Sum(rhs),rhsMax =  -1.64451785522601E-15  8.44560207668184E-02
 cg2d: Sum(rhs),rhsMax =  -1.93074722876219E-15  8.37354531132360E-02
 cg2d: Sum(rhs),rhsMax =  -1.78329573330416E-15  8.29501926353858E-02
 cg2d: Sum(rhs),rhsMax =  -1.83186799063151E-15  8.21071309478243E-02
 cg2d: Sum(rhs),rhsMax =  -1.52221985016965E-15  8.12189902365510E-02
 cg2d: Sum(rhs),rhsMax =  -1.45022882591661E-15  8.03026761140900E-02
 cg2d: Sum(rhs),rhsMax =  -1.43808576158477E-15  7.93770065425565E-02
 cg2d: Sum(rhs),rhsMax =  -1.76074432811646E-15  7.84601908330230E-02
 cg2d: Sum(rhs),rhsMax =  -1.40686073901719E-15  7.75674615115523E-02
 cg2d: Sum(rhs),rhsMax =  -9.12464548363801E-16  7.67092253001282E-02
 cg2d: Sum(rhs),rhsMax =  -9.47159017883337E-16  7.58900062647402E-02
 cg2d: Sum(rhs),rhsMax =  -1.06512021424976E-15  7.51083217877190E-02
 cg2d: Sum(rhs),rhsMax =  -8.11850586757146E-16  7.43574829043682E-02
 cg2d: Sum(rhs),rhsMax =  -4.78783679369599E-16  7.36271681791616E-02
 cg2d: Sum(rhs),rhsMax =  -6.24500451351651E-17  7.29055056893440E-02
 cg2d: Sum(rhs),rhsMax =   4.85722573273506E-17  7.21813268169324E-02
 --> objf_test(bi,bj)   = -0.849803632756669E+00
 --> objf_tracer(bi,bj) =  0.000000000000000E+00
 --> objf_atl(bi,bj)    =  0.000000000000000E+00
  local fc = -0.849803632756669E+00
 global fc = -0.849803632756669E+00
(PID.TID 0000.0001)  MDSREADFIELD: opening file: xx_depth.0000000000.001.001.data
 grad-res -------------------------------
 grad-res     0   18    3    5    1   -.849803598E+00 -.849803563E+00 -.849803633E+00
 grad-res     0   18   18   18   20   0.348105528E-03 0.348127607E-03 -.634282353E-04
(PID.TID 0000.0001)       precision_grdchk_result ADM    -8.49803597943908E-01     3.48105527577666E-04
 ph-grd  ierr ---------------------------
 ph-grd  ierr =  0, icomp =  18, ichknum =  18
(PID.TID 0000.0001)  MDSREADFIELD: opening file: adxx_depth.0000000000.001.001.data
(PID.TID 0000.0001)  MDSREADFIELD: opening file: xx_depth.0000000000.001.001.data
(PID.TID 0000.0001)  MDSREADFIELD: opening global file: walls.bigRidge
(PID.TID 0000.0001) // =======================================================
(PID.TID 0000.0001) // Field Bottom depths (ini_depths) at iteration          1
(PID.TID 0000.0001) // CMIN =         -5.000000000000000E+03
(PID.TID 0000.0001) // CMAX =         -2.000000000000000E+03
(PID.TID 0000.0001) // CINT =          1.111111111111111E+02
(PID.TID 0000.0001) // SYMBOLS (CMIN->CMAX): -abcdefghijklmnopqrstuvwxyz+
(PID.TID 0000.0001) //                  0.0: .
(PID.TID 0000.0001) // RANGE I (Lo:Hi:Step):(  -1:   7:   1)
(PID.TID 0000.0001) // RANGE J (Lo:Hi:Step):(   7:  -1:  -1)
(PID.TID 0000.0001) // RANGE K (Lo:Hi:Step):(   1:   1:   1)
(PID.TID 0000.0001) // =======================================================
(PID.TID 0000.0001) K =   1
(PID.TID 0000.0001) //
(PID.TID 0000.0001) // |--J--|*01234567
(PID.TID 0000.0001) //      7 ----+----
(PID.TID 0000.0001) //      6 .........
(PID.TID 0000.0001) //      5 ----+----
(PID.TID 0000.0001) //      4 ----+----
(PID.TID 0000.0001) //      3 ----+----
(PID.TID 0000.0001) //      2 ----+----
(PID.TID 0000.0001) //      1 .........
(PID.TID 0000.0001) //      0 ----+----
(PID.TID 0000.0001) //     -1 ----+----
(PID.TID 0000.0001) // =======================================================
(PID.TID 0000.0001) // END OF FIELD                                          =
(PID.TID 0000.0001) // =======================================================
(PID.TID 0000.0001) 
(PID.TID 0000.0001) // =======================================================
(PID.TID 0000.0001) // Field Model R_low (ini_masks_etc) at iteration          1
(PID.TID 0000.0001) // CMIN =         -5.000000000000000E+03
(PID.TID 0000.0001) // CMAX =         -2.000000000000000E+03
(PID.TID 0000.0001) // CINT =          1.111111111111111E+02
(PID.TID 0000.0001) // SYMBOLS (CMIN->CMAX): -abcdefghijklmnopqrstuvwxyz+
(PID.TID 0000.0001) //                  0.0: .
(PID.TID 0000.0001) // RANGE I (Lo:Hi:Step):(  -1:   7:   1)
(PID.TID 0000.0001) // RANGE J (Lo:Hi:Step):(   7:  -1:  -1)
(PID.TID 0000.0001) // RANGE K (Lo:Hi:Step):(   1:   1:   1)
(PID.TID 0000.0001) // =======================================================
(PID.TID 0000.0001) K =   1
(PID.TID 0000.0001) //
(PID.TID 0000.0001) // |--J--|*01234567
(PID.TID 0000.0001) //      7 ----+----
(PID.TID 0000.0001) //      6 .........
(PID.TID 0000.0001) //      5 ----+----
(PID.TID 0000.0001) //      4 ----+----
(PID.TID 0000.0001) //      3 ----+----
(PID.TID 0000.0001) //      2 ----+----
(PID.TID 0000.0001) //      1 .........
(PID.TID 0000.0001) //      0 ----+----
(PID.TID 0000.0001) //     -1 ----+----
(PID.TID 0000.0001) // =======================================================
(PID.TID 0000.0001) // END OF FIELD                                          =
(PID.TID 0000.0001) // =======================================================
(PID.TID 0000.0001) 
(PID.TID 0000.0001) // =======================================================
(PID.TID 0000.0001) // Field Model Ro_surf (ini_masks_etc) at iteration          1
(PID.TID 0000.0001) // CMIN =          2.273736754432321E-13
(PID.TID 0000.0001) // CMAX =          2.273736754432321E-13
(PID.TID 0000.0001) // CINT =          0.000000000000000E+00
(PID.TID 0000.0001) // SYMBOLS (CMIN->CMAX): -abcdefghijklmnopqrstuvwxyz+
(PID.TID 0000.0001) //                  0.0: .
(PID.TID 0000.0001) // RANGE I (Lo:Hi:Step):(  -1:   7:   1)
(PID.TID 0000.0001) // RANGE J (Lo:Hi:Step):(   7:  -1:  -1)
(PID.TID 0000.0001) // RANGE K (Lo:Hi:Step):(   1:   1:   1)
(PID.TID 0000.0001) // =======================================================
(PID.TID 0000.0001) // =======================================================
(PID.TID 0000.0001) // END OF FIELD                                          =
(PID.TID 0000.0001) // =======================================================
(PID.TID 0000.0001) 
(PID.TID 0000.0001) // =======================================================
(PID.TID 0000.0001) // Field hFacC at iteration          1
(PID.TID 0000.0001) // CMIN =          1.000000000000000E+00
(PID.TID 0000.0001) // CMAX =          1.000000000000000E+00
(PID.TID 0000.0001) // CINT =          0.000000000000000E+00
(PID.TID 0000.0001) // SYMBOLS (CMIN->CMAX): -abcdefghijklmnopqrstuvwxyz+
(PID.TID 0000.0001) //                  0.0: .
(PID.TID 0000.0001) // RANGE I (Lo:Hi:Step):(  -1:   7:   1)
(PID.TID 0000.0001) // RANGE J (Lo:Hi:Step):(   7:  -1:  -1)
(PID.TID 0000.0001) // RANGE K (Lo:Hi:Step):(   1:   1:   1)
(PID.TID 0000.0001) // =======================================================
(PID.TID 0000.0001) // =======================================================
(PID.TID 0000.0001) // END OF FIELD                                          =
(PID.TID 0000.0001) // =======================================================
(PID.TID 0000.0001) 
(PID.TID 0000.0001) // =======================================================
(PID.TID 0000.0001) // Field hFacW at iteration          1
(PID.TID 0000.0001) // CMIN =          1.000000000000000E+00
(PID.TID 0000.0001) // CMAX =          1.000000000000000E+00
(PID.TID 0000.0001) // CINT =          0.000000000000000E+00
(PID.TID 0000.0001) // SYMBOLS (CMIN->CMAX): -abcdefghijklmnopqrstuvwxyz+
(PID.TID 0000.0001) //                  0.0: .
(PID.TID 0000.0001) // RANGE I (Lo:Hi:Step):(  -1:   7:   1)
(PID.TID 0000.0001) // RANGE J (Lo:Hi:Step):(   7:  -1:  -1)
(PID.TID 0000.0001) // RANGE K (Lo:Hi:Step):(   1:   1:   1)
(PID.TID 0000.0001) // =======================================================
(PID.TID 0000.0001) // =======================================================
(PID.TID 0000.0001) // END OF FIELD                                          =
(PID.TID 0000.0001) // =======================================================
(PID.TID 0000.0001) 
(PID.TID 0000.0001) // =======================================================
(PID.TID 0000.0001) // Field hFacS at iteration          1
(PID.TID 0000.0001) // CMIN =          1.000000000000000E+00
(PID.TID 0000.0001) // CMAX =          1.000000000000000E+00
(PID.TID 0000.0001) // CINT =          0.000000000000000E+00
(PID.TID 0000.0001) // SYMBOLS (CMIN->CMAX): -abcdefghijklmnopqrstuvwxyz+
(PID.TID 0000.0001) //                  0.0: .
(PID.TID 0000.0001) // RANGE I (Lo:Hi:Step):(  -1:   7:   1)
(PID.TID 0000.0001) // RANGE J (Lo:Hi:Step):(   7:  -1:  -1)
(PID.TID 0000.0001) // RANGE K (Lo:Hi:Step):(   1:   1:   1)
(PID.TID 0000.0001) // =======================================================
(PID.TID 0000.0001) // =======================================================
(PID.TID 0000.0001) // END OF FIELD                                          =
(PID.TID 0000.0001) // =======================================================
(PID.TID 0000.0001) 
(PID.TID 0000.0001) %MON surfExpanfCori_max           =  -1.0735540000000E-04
(PID.TID 0000.0001) %MON surfExpanfCori_min           =  -1.1783060000000E-04
(PID.TID 0000.0001) %MON surfExpanfCori_mean          =  -1.1259300000000E-04
(PID.TID 0000.0001) %MON surfExpanfCori_sd            =   3.7035424771427E-06
(PID.TID 0000.0001) %MON surfExpanfCoriG_max          =  -1.0866480000000E-04
(PID.TID 0000.0001) %MON surfExpanfCoriG_min          =  -1.1914000000000E-04
(PID.TID 0000.0001) %MON surfExpanfCoriG_mean         =  -1.1390240000000E-04
(PID.TID 0000.0001) %MON surfExpanfCoriG_sd           =   3.7035424771427E-06
(PID.TID 0000.0001) %MON surfExpanfCoriCos_max        =   0.0000000000000E+00
(PID.TID 0000.0001) %MON surfExpanfCoriCos_min        =   0.0000000000000E+00
(PID.TID 0000.0001) %MON surfExpanfCoriCos_mean       =   0.0000000000000E+00
(PID.TID 0000.0001) %MON surfExpanfCoriCos_sd         =   0.0000000000000E+00
(PID.TID 0000.0001) INI_CG2D: CG2D normalisation factor =  1.9999999999999996E-04
(PID.TID 0000.0001) 
                     ctrl_depth_ini: ctrl update R_low,
                                     adding the control vector.
(PID.TID 0000.0001)  MDSREADFIELD: opening file: xx_depth.0000000000.001.001.data
(PID.TID 0000.0001) // =======================================================
(PID.TID 0000.0001) // Field Model Ro_surf (update_masks_etc) at iteration          1
(PID.TID 0000.0001) // CMIN =          2.273736754432321E-13
(PID.TID 0000.0001) // CMAX =          2.273736754432321E-13
(PID.TID 0000.0001) // CINT =          0.000000000000000E+00
(PID.TID 0000.0001) // SYMBOLS (CMIN->CMAX): -abcdefghijklmnopqrstuvwxyz+
(PID.TID 0000.0001) //                  0.0: .
(PID.TID 0000.0001) // RANGE I (Lo:Hi:Step):(  -1:   7:   1)
(PID.TID 0000.0001) // RANGE J (Lo:Hi:Step):(   7:  -1:  -1)
(PID.TID 0000.0001) // RANGE K (Lo:Hi:Step):(   1:   1:   1)
(PID.TID 0000.0001) // =======================================================
(PID.TID 0000.0001) // =======================================================
(PID.TID 0000.0001) // END OF FIELD                                          =
(PID.TID 0000.0001) // =======================================================
(PID.TID 0000.0001) 
(PID.TID 0000.0001) // =======================================================
(PID.TID 0000.0001) // Field hFacC at iteration          1
(PID.TID 0000.0001) // CMIN =          1.000000000000000E+00
(PID.TID 0000.0001) // CMAX =          1.000000000000000E+00
(PID.TID 0000.0001) // CINT =          0.000000000000000E+00
(PID.TID 0000.0001) // SYMBOLS (CMIN->CMAX): -abcdefghijklmnopqrstuvwxyz+
(PID.TID 0000.0001) //                  0.0: .
(PID.TID 0000.0001) // RANGE I (Lo:Hi:Step):(  -1:   7:   1)
(PID.TID 0000.0001) // RANGE J (Lo:Hi:Step):(   7:  -1:  -1)
(PID.TID 0000.0001) // RANGE K (Lo:Hi:Step):(   1:   1:   1)
(PID.TID 0000.0001) // =======================================================
(PID.TID 0000.0001) // =======================================================
(PID.TID 0000.0001) // END OF FIELD                                          =
(PID.TID 0000.0001) // =======================================================
(PID.TID 0000.0001) 
(PID.TID 0000.0001) // =======================================================
(PID.TID 0000.0001) // Field hFacW at iteration          1
(PID.TID 0000.0001) // CMIN =          1.000000000000000E+00
(PID.TID 0000.0001) // CMAX =          1.000000000000000E+00
(PID.TID 0000.0001) // CINT =          0.000000000000000E+00
(PID.TID 0000.0001) // SYMBOLS (CMIN->CMAX): -abcdefghijklmnopqrstuvwxyz+
(PID.TID 0000.0001) //                  0.0: .
(PID.TID 0000.0001) // RANGE I (Lo:Hi:Step):(  -1:   7:   1)
(PID.TID 0000.0001) // RANGE J (Lo:Hi:Step):(   7:  -1:  -1)
(PID.TID 0000.0001) // RANGE K (Lo:Hi:Step):(   1:   1:   1)
(PID.TID 0000.0001) // =======================================================
(PID.TID 0000.0001) // =======================================================
(PID.TID 0000.0001) // END OF FIELD                                          =
(PID.TID 0000.0001) // =======================================================
(PID.TID 0000.0001) 
(PID.TID 0000.0001) // =======================================================
(PID.TID 0000.0001) // Field hFacS at iteration          1
(PID.TID 0000.0001) // CMIN =          1.000000000000000E+00
(PID.TID 0000.0001) // CMAX =          1.000000000000000E+00
(PID.TID 0000.0001) // CINT =          0.000000000000000E+00
(PID.TID 0000.0001) // SYMBOLS (CMIN->CMAX): -abcdefghijklmnopqrstuvwxyz+
(PID.TID 0000.0001) //                  0.0: .
(PID.TID 0000.0001) // RANGE I (Lo:Hi:Step):(  -1:   7:   1)
(PID.TID 0000.0001) // RANGE J (Lo:Hi:Step):(   7:  -1:  -1)
(PID.TID 0000.0001) // RANGE K (Lo:Hi:Step):(   1:   1:   1)
(PID.TID 0000.0001) // =======================================================
(PID.TID 0000.0001) // =======================================================
(PID.TID 0000.0001) // END OF FIELD                                          =
(PID.TID 0000.0001) // =======================================================
(PID.TID 0000.0001) 
(PID.TID 0000.0001) // =======================================================
(PID.TID 0000.0001) // Field Initial Temperature at iteration          1
(PID.TID 0000.0001) // CMIN =          4.000000000000000E+00
(PID.TID 0000.0001) // CMAX =          4.000000000000000E+00
(PID.TID 0000.0001) // CINT =          0.000000000000000E+00
(PID.TID 0000.0001) // SYMBOLS (CMIN->CMAX): -abcdefghijklmnopqrstuvwxyz+
(PID.TID 0000.0001) //                  0.0: .
(PID.TID 0000.0001) // RANGE I (Lo:Hi:Step):(   1:   5:   1)
(PID.TID 0000.0001) // RANGE J (Lo:Hi:Step):(   5:   1:  -1)
(PID.TID 0000.0001) // RANGE K (Lo:Hi:Step):(   1:   1:   1)
(PID.TID 0000.0001) // =======================================================
(PID.TID 0000.0001) // =======================================================
(PID.TID 0000.0001) // END OF FIELD                                          =
(PID.TID 0000.0001) // =======================================================
(PID.TID 0000.0001) 
(PID.TID 0000.0001) // =======================================================
(PID.TID 0000.0001) // Field Initial Salinity at iteration          1
(PID.TID 0000.0001) // CMIN =          3.500000000000000E+01
(PID.TID 0000.0001) // CMAX =          3.500000000000000E+01
(PID.TID 0000.0001) // CINT =          0.000000000000000E+00
(PID.TID 0000.0001) // SYMBOLS (CMIN->CMAX): -abcdefghijklmnopqrstuvwxyz+
(PID.TID 0000.0001) //                  0.0: .
(PID.TID 0000.0001) // RANGE I (Lo:Hi:Step):(   1:   5:   1)
(PID.TID 0000.0001) // RANGE J (Lo:Hi:Step):(   5:   1:  -1)
(PID.TID 0000.0001) // RANGE K (Lo:Hi:Step):(   1:   1:   1)
(PID.TID 0000.0001) // =======================================================
(PID.TID 0000.0001) // =======================================================
(PID.TID 0000.0001) // END OF FIELD                                          =
(PID.TID 0000.0001) // =======================================================
(PID.TID 0000.0001) 
(PID.TID 0000.0001) Start initial hydrostatic pressure computation
(PID.TID 0000.0001) Pressure is predetermined for buoyancyRelation OCEANIC
(PID.TID 0000.0001) 
(PID.TID 0000.0001)  MDSREADFIELD: opening global file: windx.sin_y
(PID.TID 0000.0001) // =======================================================
(PID.TID 0000.0001) // Model current state
(PID.TID 0000.0001) // =======================================================
(PID.TID 0000.0001) 
 cg2d: Sum(rhs),rhsMax =   0.00000000000000E+00  0.00000000000000E+00
 cg2d: Sum(rhs),rhsMax =   4.68375338513738E-16  2.62483626325265E-03
 cg2d: Sum(rhs),rhsMax =   4.59701721133854E-16  5.13362633360820E-03
 cg2d: Sum(rhs),rhsMax =   5.89372300963120E-16  7.16168459288799E-03
 cg2d: Sum(rhs),rhsMax =   6.89552581700781E-16  9.29466756035638E-03
 cg2d: Sum(rhs),rhsMax =   6.27969898303604E-16  1.15304356803279E-02
 cg2d: Sum(rhs),rhsMax =   1.12323345069498E-16  1.37809802363090E-02
 cg2d: Sum(rhs),rhsMax =   9.36750677027476E-17  1.60011247481063E-02
 cg2d: Sum(rhs),rhsMax =   2.91433543964104E-16  1.82027337919986E-02
 cg2d: Sum(rhs),rhsMax =   5.27355936696949E-16  2.04493560880689E-02
 cg2d: Sum(rhs),rhsMax =   8.18789480661053E-16  2.25706027749630E-02
 cg2d: Sum(rhs),rhsMax =   9.57567358739198E-16  2.45301657173910E-02
 cg2d: Sum(rhs),rhsMax =   1.22124532708767E-15  2.63097944388134E-02
 cg2d: Sum(rhs),rhsMax =   1.26287869051112E-15  2.79110497231595E-02
 cg2d: Sum(rhs),rhsMax =   1.31838984174237E-15  2.93538602399251E-02
 cg2d: Sum(rhs),rhsMax =   1.56819002228303E-15  3.06720439125967E-02
 cg2d: Sum(rhs),rhsMax =   1.50573997714787E-15  3.19067816627776E-02
 cg2d: Sum(rhs),rhsMax =   1.68615121864946E-15  3.30992667657067E-02
 cg2d: Sum(rhs),rhsMax =   8.88178419700125E-16  3.42837432859600E-02
 cg2d: Sum(rhs),rhsMax =   4.37150315946155E-16  3.54819650799568E-02
 cg2d: Sum(rhs),rhsMax =  -3.05311331771918E-16  3.66998058473970E-02
 cg2d: Sum(rhs),rhsMax =   1.45716771982052E-16  3.79264045517107E-02
 cg2d: Sum(rhs),rhsMax =  -2.35922392732846E-16  3.91358858397419E-02
 cg2d: Sum(rhs),rhsMax =  -1.38777878078145E-16  4.02913639265845E-02
 cg2d: Sum(rhs),rhsMax =  -1.09634523681734E-15  4.13506294668023E-02
 cg2d: Sum(rhs),rhsMax =  -1.30451205393456E-15  4.22726606675125E-02
 cg2d: Sum(rhs),rhsMax =  -8.18789480661053E-16  4.30239435246630E-02
 cg2d: Sum(rhs),rhsMax =  -6.66133814775094E-16  4.35835862234342E-02
 cg2d: Sum(rhs),rhsMax =  -8.60422844084496E-16  4.39463978508207E-02
 cg2d: Sum(rhs),rhsMax =  -1.05471187339390E-15  4.41234514632760E-02
 cg2d: Sum(rhs),rhsMax =  -6.66133814775094E-16  4.41400962226663E-02
 cg2d: Sum(rhs),rhsMax =  -8.18789480661053E-16  4.40318241277362E-02
 cg2d: Sum(rhs),rhsMax =  -8.88178419700125E-16  4.38387397375474E-02
 cg2d: Sum(rhs),rhsMax =  -1.31838984174237E-15  4.54379564123556E-02
 cg2d: Sum(rhs),rhsMax =  -1.01307850997046E-15  4.77259345500092E-02
 cg2d: Sum(rhs),rhsMax =  -9.71445146547012E-16  4.99949947021214E-02
 cg2d: Sum(rhs),rhsMax =  -7.77156117237610E-16  5.22073350573076E-02
 cg2d: Sum(rhs),rhsMax =  -6.66133814775094E-16  5.43317159405735E-02
 cg2d: Sum(rhs),rhsMax =  -5.82867087928207E-16  5.63476438765587E-02
 cg2d: Sum(rhs),rhsMax =  -5.27355936696949E-16  5.82478252007815E-02
 cg2d: Sum(rhs),rhsMax =  -4.16333634234434E-16  6.00385231986821E-02
 cg2d: Sum(rhs),rhsMax =  -8.32667268468867E-17  6.17377933731633E-02
 cg2d: Sum(rhs),rhsMax =  -8.32667268468867E-17  6.33719187531787E-02
 cg2d: Sum(rhs),rhsMax =   4.44089209850063E-16  6.49706566396566E-02
 cg2d: Sum(rhs),rhsMax =  -4.99600361081320E-16  6.65620859924833E-02
 cg2d: Sum(rhs),rhsMax =  -4.99600361081320E-16  6.81678817237368E-02
 cg2d: Sum(rhs),rhsMax =  -4.16333634234434E-16  6.97997401475069E-02
 cg2d: Sum(rhs),rhsMax =  -5.27355936696949E-16  7.14574672962999E-02
 cg2d: Sum(rhs),rhsMax =  -2.77555756156289E-16  7.31289633662196E-02
 cg2d: Sum(rhs),rhsMax =  -4.99600361081320E-16  7.47920405488174E-02
 cg2d: Sum(rhs),rhsMax =  -2.77555756156289E-16  7.64177409930757E-02
 cg2d: Sum(rhs),rhsMax =  -3.05311331771918E-16  7.79746104304410E-02
 cg2d: Sum(rhs),rhsMax =  -2.49800180540660E-16  7.94332554013778E-02
 cg2d: Sum(rhs),rhsMax =   2.77555756156289E-16  8.07704832341648E-02
 cg2d: Sum(rhs),rhsMax =   8.32667268468867E-17  8.19723988101348E-02
 cg2d: Sum(rhs),rhsMax =   7.49400541621981E-16  8.30360024582839E-02
 cg2d: Sum(rhs),rhsMax =   1.15185638804860E-15  8.39690754293774E-02
 cg2d: Sum(rhs),rhsMax =   1.38777878078145E-15  8.47884152533942E-02
 cg2d: Sum(rhs),rhsMax =   1.23512311489549E-15  8.55167460892798E-02
 cg2d: Sum(rhs),rhsMax =   1.09634523681734E-15  8.61788329714876E-02
 cg2d: Sum(rhs),rhsMax =   1.27675647831893E-15  8.67974390213078E-02
 cg2d: Sum(rhs),rhsMax =   1.47104550762833E-15  8.73897656627703E-02
 cg2d: Sum(rhs),rhsMax =   1.31838984174237E-15  8.79649134842010E-02
 cg2d: Sum(rhs),rhsMax =   1.73472347597681E-15  8.85227194127688E-02
 cg2d: Sum(rhs),rhsMax =   1.26287869051112E-15  8.90540989175498E-02
 cg2d: Sum(rhs),rhsMax =   1.20736753927986E-15  8.95427875101040E-02
 cg2d: Sum(rhs),rhsMax =   1.38777878078145E-15  8.99681680710950E-02
 cg2d: Sum(rhs),rhsMax =   1.49186218934005E-15  9.03087168885408E-02
 cg2d: Sum(rhs),rhsMax =   1.04083408558608E-15  9.05455207731940E-02
 cg2d: Sum(rhs),rhsMax =   6.03683769639929E-16  9.06653199668212E-02
 cg2d: Sum(rhs),rhsMax =   5.48172618408671E-16  9.06626161333145E-02
 cg2d: Sum(rhs),rhsMax =   5.96744875736022E-16  9.05405394068680E-02
 cg2d: Sum(rhs),rhsMax =   5.51642065360625E-16  9.03103697955348E-02
 cg2d: Sum(rhs),rhsMax =   1.07552855510562E-16  8.99898238728571E-02
 cg2d: Sum(rhs),rhsMax =   7.37257477290143E-16  8.96004116754599E-02
 cg2d: Sum(rhs),rhsMax =   8.30282023689399E-16  8.91643084694510E-02
 cg2d: Sum(rhs),rhsMax =   6.97358837342676E-16  8.87012491153543E-02
 cg2d: Sum(rhs),rhsMax =   4.44089209850063E-16  8.82259313072654E-02
 cg2d: Sum(rhs),rhsMax =   5.82867087928207E-16  8.77463155354385E-02
 cg2d: Sum(rhs),rhsMax =   1.14491749414469E-16  8.72630543901339E-02
 cg2d: Sum(rhs),rhsMax =  -1.83880688453542E-16  8.67700995245197E-02
 cg2d: Sum(rhs),rhsMax =  -3.46944695195361E-18  8.62563509836189E-02
 cg2d: Sum(rhs),rhsMax =   2.60208521396521E-17  8.57080578382588E-02
 cg2d: Sum(rhs),rhsMax =  -1.07552855510562E-16  8.51115725422904E-02
 cg2d: Sum(rhs),rhsMax =  -3.05311331771918E-16  8.44560179265562E-02
 cg2d: Sum(rhs),rhsMax =  -2.11636264069170E-16  8.37354502436922E-02
 cg2d: Sum(rhs),rhsMax =   7.11236625150491E-17  8.29501897381275E-02
 cg2d: Sum(rhs),rhsMax =  -3.36536354339501E-16  8.21071280250390E-02
 cg2d: Sum(rhs),rhsMax =  -3.22658566531686E-16  8.12189872910162E-02
 cg2d: Sum(rhs),rhsMax =  -2.42861286636753E-16  8.03026731490520E-02
 cg2d: Sum(rhs),rhsMax =  -5.37764277552810E-17  7.93770035615398E-02
 cg2d: Sum(rhs),rhsMax =  -1.47451495458029E-16  7.84601878395996E-02
 cg2d: Sum(rhs),rhsMax =  -1.68268177169750E-16  7.75674585091085E-02
 cg2d: Sum(rhs),rhsMax =   7.97972798949331E-17  7.67092222916631E-02
 cg2d: Sum(rhs),rhsMax =  -3.46944695195361E-17  7.58900032527273E-02
 cg2d: Sum(rhs),rhsMax =   1.28369537222284E-16  7.51083187740477E-02
 cg2d: Sum(rhs),rhsMax =   1.31838984174237E-16  7.43574798903732E-02
 cg2d: Sum(rhs),rhsMax =   9.02056207507940E-17  7.36271651657304E-02
 cg2d: Sum(rhs),rhsMax =   4.51028103753970E-16  7.29055026770836E-02
 cg2d: Sum(rhs),rhsMax =   4.37150315946155E-16  7.21813238063669E-02
 --> objf_test(bi,bj)   = -0.849803599361677E+00
 --> objf_tracer(bi,bj) =  0.000000000000000E+00
 --> objf_atl(bi,bj)    =  0.000000000000000E+00
  local fc = -0.849803599361677E+00
 global fc = -0.849803599361677E+00
 ph-check fcpertplus =  -0.849803599
(PID.TID 0000.0001)  MDSREADFIELD: opening file: xx_depth.0000000000.001.001.data
 ph-check fcpertminus =  -0.849803598
(PID.TID 0000.0001)  MDSREADFIELD: opening file: xx_depth.0000000000.001.001.data
(PID.TID 0000.0001)  MDSREADFIELD: opening global file: walls.bigRidge
(PID.TID 0000.0001) // =======================================================
(PID.TID 0000.0001) // Field Bottom depths (ini_depths) at iteration          1
(PID.TID 0000.0001) // CMIN =         -5.000000000000000E+03
(PID.TID 0000.0001) // CMAX =         -2.000000000000000E+03
(PID.TID 0000.0001) // CINT =          1.111111111111111E+02
(PID.TID 0000.0001) // SYMBOLS (CMIN->CMAX): -abcdefghijklmnopqrstuvwxyz+
(PID.TID 0000.0001) //                  0.0: .
(PID.TID 0000.0001) // RANGE I (Lo:Hi:Step):(  -1:   7:   1)
(PID.TID 0000.0001) // RANGE J (Lo:Hi:Step):(   7:  -1:  -1)
(PID.TID 0000.0001) // RANGE K (Lo:Hi:Step):(   1:   1:   1)
(PID.TID 0000.0001) // =======================================================
(PID.TID 0000.0001) K =   1
(PID.TID 0000.0001) //
(PID.TID 0000.0001) // |--J--|*01234567
(PID.TID 0000.0001) //      7 ----+----
(PID.TID 0000.0001) //      6 .........
(PID.TID 0000.0001) //      5 ----+----
(PID.TID 0000.0001) //      4 ----+----
(PID.TID 0000.0001) //      3 ----+----
(PID.TID 0000.0001) //      2 ----+----
(PID.TID 0000.0001) //      1 .........
(PID.TID 0000.0001) //      0 ----+----
(PID.TID 0000.0001) //     -1 ----+----
(PID.TID 0000.0001) // =======================================================
(PID.TID 0000.0001) // END OF FIELD                                          =
(PID.TID 0000.0001) // =======================================================
(PID.TID 0000.0001) 
(PID.TID 0000.0001) // =======================================================
(PID.TID 0000.0001) // Field Model R_low (ini_masks_etc) at iteration          1
(PID.TID 0000.0001) // CMIN =         -5.000000000000000E+03
(PID.TID 0000.0001) // CMAX =         -2.000000000000000E+03
(PID.TID 0000.0001) // CINT =          1.111111111111111E+02
(PID.TID 0000.0001) // SYMBOLS (CMIN->CMAX): -abcdefghijklmnopqrstuvwxyz+
(PID.TID 0000.0001) //                  0.0: .
(PID.TID 0000.0001) // RANGE I (Lo:Hi:Step):(  -1:   7:   1)
(PID.TID 0000.0001) // RANGE J (Lo:Hi:Step):(   7:  -1:  -1)
(PID.TID 0000.0001) // RANGE K (Lo:Hi:Step):(   1:   1:   1)
(PID.TID 0000.0001) // =======================================================
(PID.TID 0000.0001) K =   1
(PID.TID 0000.0001) //
(PID.TID 0000.0001) // |--J--|*01234567
(PID.TID 0000.0001) //      7 ----+----
(PID.TID 0000.0001) //      6 .........
(PID.TID 0000.0001) //      5 ----+----
(PID.TID 0000.0001) //      4 ----+----
(PID.TID 0000.0001) //      3 ----+----
(PID.TID 0000.0001) //      2 ----+----
(PID.TID 0000.0001) //      1 .........
(PID.TID 0000.0001) //      0 ----+----
(PID.TID 0000.0001) //     -1 ----+----
(PID.TID 0000.0001) // =======================================================
(PID.TID 0000.0001) // END OF FIELD                                          =
(PID.TID 0000.0001) // =======================================================
(PID.TID 0000.0001) 
(PID.TID 0000.0001) // =======================================================
(PID.TID 0000.0001) // Field Model Ro_surf (ini_masks_etc) at iteration          1
(PID.TID 0000.0001) // CMIN =          2.273736754432321E-13
(PID.TID 0000.0001) // CMAX =          2.273736754432321E-13
(PID.TID 0000.0001) // CINT =          0.000000000000000E+00
(PID.TID 0000.0001) // SYMBOLS (CMIN->CMAX): -abcdefghijklmnopqrstuvwxyz+
(PID.TID 0000.0001) //                  0.0: .
(PID.TID 0000.0001) // RANGE I (Lo:Hi:Step):(  -1:   7:   1)
(PID.TID 0000.0001) // RANGE J (Lo:Hi:Step):(   7:  -1:  -1)
(PID.TID 0000.0001) // RANGE K (Lo:Hi:Step):(   1:   1:   1)
(PID.TID 0000.0001) // =======================================================
(PID.TID 0000.0001) // =======================================================
(PID.TID 0000.0001) // END OF FIELD                                          =
(PID.TID 0000.0001) // =======================================================
(PID.TID 0000.0001) 
(PID.TID 0000.0001) // =======================================================
(PID.TID 0000.0001) // Field hFacC at iteration          1
(PID.TID 0000.0001) // CMIN =          1.000000000000000E+00
(PID.TID 0000.0001) // CMAX =          1.000000000000000E+00
(PID.TID 0000.0001) // CINT =          0.000000000000000E+00
(PID.TID 0000.0001) // SYMBOLS (CMIN->CMAX): -abcdefghijklmnopqrstuvwxyz+
(PID.TID 0000.0001) //                  0.0: .
(PID.TID 0000.0001) // RANGE I (Lo:Hi:Step):(  -1:   7:   1)
(PID.TID 0000.0001) // RANGE J (Lo:Hi:Step):(   7:  -1:  -1)
(PID.TID 0000.0001) // RANGE K (Lo:Hi:Step):(   1:   1:   1)
(PID.TID 0000.0001) // =======================================================
(PID.TID 0000.0001) // =======================================================
(PID.TID 0000.0001) // END OF FIELD                                          =
(PID.TID 0000.0001) // =======================================================
(PID.TID 0000.0001) 
(PID.TID 0000.0001) // =======================================================
(PID.TID 0000.0001) // Field hFacW at iteration          1
(PID.TID 0000.0001) // CMIN =          1.000000000000000E+00
(PID.TID 0000.0001) // CMAX =          1.000000000000000E+00
(PID.TID 0000.0001) // CINT =          0.000000000000000E+00
(PID.TID 0000.0001) // SYMBOLS (CMIN->CMAX): -abcdefghijklmnopqrstuvwxyz+
(PID.TID 0000.0001) //                  0.0: .
(PID.TID 0000.0001) // RANGE I (Lo:Hi:Step):(  -1:   7:   1)
(PID.TID 0000.0001) // RANGE J (Lo:Hi:Step):(   7:  -1:  -1)
(PID.TID 0000.0001) // RANGE K (Lo:Hi:Step):(   1:   1:   1)
(PID.TID 0000.0001) // =======================================================
(PID.TID 0000.0001) // =======================================================
(PID.TID 0000.0001) // END OF FIELD                                          =
(PID.TID 0000.0001) // =======================================================
(PID.TID 0000.0001) 
(PID.TID 0000.0001) // =======================================================
(PID.TID 0000.0001) // Field hFacS at iteration          1
(PID.TID 0000.0001) // CMIN =          1.000000000000000E+00
(PID.TID 0000.0001) // CMAX =          1.000000000000000E+00
(PID.TID 0000.0001) // CINT =          0.000000000000000E+00
(PID.TID 0000.0001) // SYMBOLS (CMIN->CMAX): -abcdefghijklmnopqrstuvwxyz+
(PID.TID 0000.0001) //                  0.0: .
(PID.TID 0000.0001) // RANGE I (Lo:Hi:Step):(  -1:   7:   1)
(PID.TID 0000.0001) // RANGE J (Lo:Hi:Step):(   7:  -1:  -1)
(PID.TID 0000.0001) // RANGE K (Lo:Hi:Step):(   1:   1:   1)
(PID.TID 0000.0001) // =======================================================
(PID.TID 0000.0001) // =======================================================
(PID.TID 0000.0001) // END OF FIELD                                          =
(PID.TID 0000.0001) // =======================================================
(PID.TID 0000.0001) 
(PID.TID 0000.0001) %MON surfExpanfCori_max           =  -1.0735540000000E-04
(PID.TID 0000.0001) %MON surfExpanfCori_min           =  -1.1783060000000E-04
(PID.TID 0000.0001) %MON surfExpanfCori_mean          =  -1.1259300000000E-04
(PID.TID 0000.0001) %MON surfExpanfCori_sd            =   3.7035424771427E-06
(PID.TID 0000.0001) %MON surfExpanfCoriG_max          =  -1.0866480000000E-04
(PID.TID 0000.0001) %MON surfExpanfCoriG_min          =  -1.1914000000000E-04
(PID.TID 0000.0001) %MON surfExpanfCoriG_mean         =  -1.1390240000000E-04
(PID.TID 0000.0001) %MON surfExpanfCoriG_sd           =   3.7035424771427E-06
(PID.TID 0000.0001) %MON surfExpanfCoriCos_max        =   0.0000000000000E+00
(PID.TID 0000.0001) %MON surfExpanfCoriCos_min        =   0.0000000000000E+00
(PID.TID 0000.0001) %MON surfExpanfCoriCos_mean       =   0.0000000000000E+00
(PID.TID 0000.0001) %MON surfExpanfCoriCos_sd         =   0.0000000000000E+00
(PID.TID 0000.0001) INI_CG2D: CG2D normalisation factor =  1.9999999999999996E-04
(PID.TID 0000.0001) 
                     ctrl_depth_ini: ctrl update R_low,
                                     adding the control vector.
(PID.TID 0000.0001)  MDSREADFIELD: opening file: xx_depth.0000000000.001.001.data
(PID.TID 0000.0001) // =======================================================
(PID.TID 0000.0001) // Field Model Ro_surf (update_masks_etc) at iteration          1
(PID.TID 0000.0001) // CMIN =          2.273736754432321E-13
(PID.TID 0000.0001) // CMAX =          2.273736754432321E-13
(PID.TID 0000.0001) // CINT =          0.000000000000000E+00
(PID.TID 0000.0001) // SYMBOLS (CMIN->CMAX): -abcdefghijklmnopqrstuvwxyz+
(PID.TID 0000.0001) //                  0.0: .
(PID.TID 0000.0001) // RANGE I (Lo:Hi:Step):(  -1:   7:   1)
(PID.TID 0000.0001) // RANGE J (Lo:Hi:Step):(   7:  -1:  -1)
(PID.TID 0000.0001) // RANGE K (Lo:Hi:Step):(   1:   1:   1)
(PID.TID 0000.0001) // =======================================================
(PID.TID 0000.0001) // =======================================================
(PID.TID 0000.0001) // END OF FIELD                                          =
(PID.TID 0000.0001) // =======================================================
(PID.TID 0000.0001) 
(PID.TID 0000.0001) // =======================================================
(PID.TID 0000.0001) // Field hFacC at iteration          1
(PID.TID 0000.0001) // CMIN =          1.000000000000000E+00
(PID.TID 0000.0001) // CMAX =          1.000000000000000E+00
(PID.TID 0000.0001) // CINT =          0.000000000000000E+00
(PID.TID 0000.0001) // SYMBOLS (CMIN->CMAX): -abcdefghijklmnopqrstuvwxyz+
(PID.TID 0000.0001) //                  0.0: .
(PID.TID 0000.0001) // RANGE I (Lo:Hi:Step):(  -1:   7:   1)
(PID.TID 0000.0001) // RANGE J (Lo:Hi:Step):(   7:  -1:  -1)
(PID.TID 0000.0001) // RANGE K (Lo:Hi:Step):(   1:   1:   1)
(PID.TID 0000.0001) // =======================================================
(PID.TID 0000.0001) // =======================================================
(PID.TID 0000.0001) // END OF FIELD                                          =
(PID.TID 0000.0001) // =======================================================
(PID.TID 0000.0001) 
(PID.TID 0000.0001) // =======================================================
(PID.TID 0000.0001) // Field hFacW at iteration          1
(PID.TID 0000.0001) // CMIN =          1.000000000000000E+00
(PID.TID 0000.0001) // CMAX =          1.000000000000000E+00
(PID.TID 0000.0001) // CINT =          0.000000000000000E+00
(PID.TID 0000.0001) // SYMBOLS (CMIN->CMAX): -abcdefghijklmnopqrstuvwxyz+
(PID.TID 0000.0001) //                  0.0: .
(PID.TID 0000.0001) // RANGE I (Lo:Hi:Step):(  -1:   7:   1)
(PID.TID 0000.0001) // RANGE J (Lo:Hi:Step):(   7:  -1:  -1)
(PID.TID 0000.0001) // RANGE K (Lo:Hi:Step):(   1:   1:   1)
(PID.TID 0000.0001) // =======================================================
(PID.TID 0000.0001) // =======================================================
(PID.TID 0000.0001) // END OF FIELD                                          =
(PID.TID 0000.0001) // =======================================================
(PID.TID 0000.0001) 
(PID.TID 0000.0001) // =======================================================
(PID.TID 0000.0001) // Field hFacS at iteration          1
(PID.TID 0000.0001) // CMIN =          1.000000000000000E+00
(PID.TID 0000.0001) // CMAX =          1.000000000000000E+00
(PID.TID 0000.0001) // CINT =          0.000000000000000E+00
(PID.TID 0000.0001) // SYMBOLS (CMIN->CMAX): -abcdefghijklmnopqrstuvwxyz+
(PID.TID 0000.0001) //                  0.0: .
(PID.TID 0000.0001) // RANGE I (Lo:Hi:Step):(  -1:   7:   1)
(PID.TID 0000.0001) // RANGE J (Lo:Hi:Step):(   7:  -1:  -1)
(PID.TID 0000.0001) // RANGE K (Lo:Hi:Step):(   1:   1:   1)
(PID.TID 0000.0001) // =======================================================
(PID.TID 0000.0001) // =======================================================
(PID.TID 0000.0001) // END OF FIELD                                          =
(PID.TID 0000.0001) // =======================================================
(PID.TID 0000.0001) 
(PID.TID 0000.0001) // =======================================================
(PID.TID 0000.0001) // Field Initial Temperature at iteration          1
(PID.TID 0000.0001) // CMIN =          4.000000000000000E+00
(PID.TID 0000.0001) // CMAX =          4.000000000000000E+00
(PID.TID 0000.0001) // CINT =          0.000000000000000E+00
(PID.TID 0000.0001) // SYMBOLS (CMIN->CMAX): -abcdefghijklmnopqrstuvwxyz+
(PID.TID 0000.0001) //                  0.0: .
(PID.TID 0000.0001) // RANGE I (Lo:Hi:Step):(   1:   5:   1)
(PID.TID 0000.0001) // RANGE J (Lo:Hi:Step):(   5:   1:  -1)
(PID.TID 0000.0001) // RANGE K (Lo:Hi:Step):(   1:   1:   1)
(PID.TID 0000.0001) // =======================================================
(PID.TID 0000.0001) // =======================================================
(PID.TID 0000.0001) // END OF FIELD                                          =
(PID.TID 0000.0001) // =======================================================
(PID.TID 0000.0001) 
(PID.TID 0000.0001) // =======================================================
(PID.TID 0000.0001) // Field Initial Salinity at iteration          1
(PID.TID 0000.0001) // CMIN =          3.500000000000000E+01
(PID.TID 0000.0001) // CMAX =          3.500000000000000E+01
(PID.TID 0000.0001) // CINT =          0.000000000000000E+00
(PID.TID 0000.0001) // SYMBOLS (CMIN->CMAX): -abcdefghijklmnopqrstuvwxyz+
(PID.TID 0000.0001) //                  0.0: .
(PID.TID 0000.0001) // RANGE I (Lo:Hi:Step):(   1:   5:   1)
(PID.TID 0000.0001) // RANGE J (Lo:Hi:Step):(   5:   1:  -1)
(PID.TID 0000.0001) // RANGE K (Lo:Hi:Step):(   1:   1:   1)
(PID.TID 0000.0001) // =======================================================
(PID.TID 0000.0001) // =======================================================
(PID.TID 0000.0001) // END OF FIELD                                          =
(PID.TID 0000.0001) // =======================================================
(PID.TID 0000.0001) 
(PID.TID 0000.0001) Start initial hydrostatic pressure computation
(PID.TID 0000.0001) Pressure is predetermined for buoyancyRelation OCEANIC
(PID.TID 0000.0001) 
(PID.TID 0000.0001)  MDSREADFIELD: opening global file: windx.sin_y
(PID.TID 0000.0001) // =======================================================
(PID.TID 0000.0001) // Model current state
(PID.TID 0000.0001) // =======================================================
(PID.TID 0000.0001) 
 cg2d: Sum(rhs),rhsMax =   0.00000000000000E+00  0.00000000000000E+00
 cg2d: Sum(rhs),rhsMax =   4.68375338513738E-16  2.62483626325265E-03
 cg2d: Sum(rhs),rhsMax =   7.09501901674514E-16  5.13362633360820E-03
 cg2d: Sum(rhs),rhsMax =   1.25333771139324E-16  7.16168459272816E-03
 cg2d: Sum(rhs),rhsMax =  -1.43982048506075E-16  9.29466755936389E-03
 cg2d: Sum(rhs),rhsMax =  -5.55111512312578E-17  1.15304356791743E-02
 cg2d: Sum(rhs),rhsMax =   2.74953670942324E-16  1.37809802344650E-02
 cg2d: Sum(rhs),rhsMax =   5.51642065360625E-16  1.60011247457515E-02
 cg2d: Sum(rhs),rhsMax =  -3.46944695195361E-16  1.82027337904465E-02
 cg2d: Sum(rhs),rhsMax =  -7.77156117237610E-16  2.04493560862413E-02
 cg2d: Sum(rhs),rhsMax =  -1.24900090270330E-15  2.25706027728566E-02
 cg2d: Sum(rhs),rhsMax =  -1.17961196366423E-15  2.45301657150130E-02
 cg2d: Sum(rhs),rhsMax =  -9.57567358739198E-16  2.63097944361719E-02
 cg2d: Sum(rhs),rhsMax =  -8.46545056276682E-16  2.79110497202689E-02
 cg2d: Sum(rhs),rhsMax =  -1.19348975147204E-15  2.93538602368077E-02
 cg2d: Sum(rhs),rhsMax =  -6.10622663543836E-16  3.06720439092878E-02
 cg2d: Sum(rhs),rhsMax =  -5.48172618408671E-16  3.19067816593295E-02
 cg2d: Sum(rhs),rhsMax =  -5.48172618408671E-16  3.30992667621931E-02
 cg2d: Sum(rhs),rhsMax =  -3.26128013483640E-16  3.42837432824803E-02
 cg2d: Sum(rhs),rhsMax =  -6.93889390390723E-18  3.54819650766384E-02
 cg2d: Sum(rhs),rhsMax =   7.42461647718073E-16  3.66998058443974E-02
 cg2d: Sum(rhs),rhsMax =   3.19189119579733E-16  3.79264045492173E-02
 cg2d: Sum(rhs),rhsMax =  -1.73472347597681E-16  3.91358858379703E-02
 cg2d: Sum(rhs),rhsMax =  -4.85722573273506E-16  4.02913639257758E-02
 cg2d: Sum(rhs),rhsMax =  -1.08246744900953E-15  4.13506294672196E-02
 cg2d: Sum(rhs),rhsMax =  -1.55431223447522E-15  4.22726606694359E-02
 cg2d: Sum(rhs),rhsMax =  -6.93889390390723E-16  4.30239435283858E-02
 cg2d: Sum(rhs),rhsMax =  -1.84574577843932E-15  4.35835862292583E-02
 cg2d: Sum(rhs),rhsMax =  -1.87350135405495E-15  4.39463978590536E-02
 cg2d: Sum(rhs),rhsMax =  -2.56739074444567E-15  4.41234514742283E-02
 cg2d: Sum(rhs),rhsMax =  -3.20576898360514E-15  4.41400962366506E-02
 cg2d: Sum(rhs),rhsMax =  -3.74700270810990E-15  4.40318241450678E-02
 cg2d: Sum(rhs),rhsMax =  -3.80251385934116E-15  4.38387397585446E-02
 cg2d: Sum(rhs),rhsMax =  -3.53883589099269E-15  4.54379564745534E-02
 cg2d: Sum(rhs),rhsMax =  -3.40005801291454E-15  4.77259346162861E-02
 cg2d: Sum(rhs),rhsMax =  -3.42781358853017E-15  4.99949947793169E-02
 cg2d: Sum(rhs),rhsMax =  -3.08086889333481E-15  5.22073351524657E-02
 cg2d: Sum(rhs),rhsMax =  -2.99760216648792E-15  5.43317160599008E-02
 cg2d: Sum(rhs),rhsMax =  -3.26128013483640E-15  5.63476440245380E-02
 cg2d: Sum(rhs),rhsMax =  -2.74780198594726E-15  5.82478253795738E-02
 cg2d: Sum(rhs),rhsMax =  -3.21964677141295E-15  6.00385234079035E-02
 cg2d: Sum(rhs),rhsMax =  -2.55351295663786E-15  6.17377936100615E-02
 cg2d: Sum(rhs),rhsMax =  -2.96984659087229E-15  6.33719190131712E-02
 cg2d: Sum(rhs),rhsMax =  -3.71924713249427E-15  6.49706569171382E-02
 cg2d: Sum(rhs),rhsMax =  -3.10862446895044E-15  6.65620862817701E-02
 cg2d: Sum(rhs),rhsMax =  -2.94209101525666E-15  6.81678820199930E-02
 cg2d: Sum(rhs),rhsMax =  -3.02535774210355E-15  6.97997404475111E-02
 cg2d: Sum(rhs),rhsMax =  -3.21964677141295E-15  7.14574675989338E-02
 cg2d: Sum(rhs),rhsMax =  -2.72004641033163E-15  7.31289636726097E-02
 cg2d: Sum(rhs),rhsMax =  -2.30371277609720E-15  7.47920408621165E-02
 cg2d: Sum(rhs),rhsMax =  -2.16493489801906E-15  7.64177413179290E-02
 cg2d: Sum(rhs),rhsMax =  -1.55431223447522E-15  7.79746107722273E-02
 cg2d: Sum(rhs),rhsMax =  -1.30451205393456E-15  7.94332557653515E-02
 cg2d: Sum(rhs),rhsMax =  -8.88178419700125E-16  8.07704836246331E-02
 cg2d: Sum(rhs),rhsMax =  -1.16573417585641E-15  8.19723992297980E-02
 cg2d: Sum(rhs),rhsMax =  -1.27675647831893E-15  8.30360029078362E-02
 cg2d: Sum(rhs),rhsMax =  -1.08246744900953E-15  8.39690759074234E-02
 cg2d: Sum(rhs),rhsMax =  -5.13478148889135E-16  8.47884157566862E-02
 cg2d: Sum(rhs),rhsMax =  -9.29811783123569E-16  8.55167466132312E-02
 cg2d: Sum(rhs),rhsMax =  -1.13797860024079E-15  8.61788335108754E-02
 cg2d: Sum(rhs),rhsMax =  -1.24900090270330E-15  8.67974395710513E-02
 cg2d: Sum(rhs),rhsMax =  -1.08246744900953E-15  8.73897662186628E-02
 cg2d: Sum(rhs),rhsMax =  -1.23512311489549E-15  8.79649140434830E-02
 cg2d: Sum(rhs),rhsMax =  -1.12410081243297E-15  8.85227199744586E-02
 cg2d: Sum(rhs),rhsMax =  -9.29811783123569E-16  8.90540994824868E-02
 cg2d: Sum(rhs),rhsMax =  -1.23512311489549E-15  8.95427880807085E-02
 cg2d: Sum(rhs),rhsMax =  -1.13797860024079E-15  8.99681686508891E-02
 cg2d: Sum(rhs),rhsMax =  -9.15933995315754E-16  9.03087174815122E-02
 cg2d: Sum(rhs),rhsMax =  -9.85322934354826E-16  9.05455213831082E-02
 cg2d: Sum(rhs),rhsMax =  -5.96744875736022E-16  9.06653205965863E-02
 cg2d: Sum(rhs),rhsMax =  -1.31838984174237E-16  9.06626167845003E-02
 cg2d: Sum(rhs),rhsMax =  -4.02455846426619E-16  9.05405400794454E-02
 cg2d: Sum(rhs),rhsMax =  -7.38992200766120E-16  9.03103704878707E-02
 cg2d: Sum(rhs),rhsMax =  -1.28716481917479E-15  8.99898245819588E-02
 cg2d: Sum(rhs),rhsMax =  -1.25420507313123E-15  8.96004123974229E-02
 cg2d: Sum(rhs),rhsMax =  -1.65351673325764E-15  8.91643092000348E-02
 cg2d: Sum(rhs),rhsMax =  -1.96891114523368E-15  8.87012498505931E-02
 cg2d: Sum(rhs),rhsMax =  -2.11289319373975E-15  8.82259320440179E-02
 cg2d: Sum(rhs),rhsMax =  -2.11983208764366E-15  8.77463162717929E-02
 cg2d: Sum(rhs),rhsMax =  -2.40779618465581E-15  8.72630551256097E-02
 cg2d: Sum(rhs),rhsMax =  -2.75821032680312E-15  8.67701002600416E-02
 cg2d: Sum(rhs),rhsMax =  -2.68535194081210E-15  8.62563517212739E-02
 cg2d: Sum(rhs),rhsMax =  -3.05831748814711E-15  8.57080585808810E-02
 cg2d: Sum(rhs),rhsMax =  -3.16760506713365E-15  8.51115732929453E-02
 cg2d: Sum(rhs),rhsMax =  -3.25434124093249E-15  8.44560186880065E-02
 cg2d: Sum(rhs),rhsMax =  -3.35322047906317E-15  8.37354510179296E-02
 cg2d: Sum(rhs),rhsMax =  -3.62904151174348E-15  8.29501905260428E-02
 cg2d: Sum(rhs),rhsMax =  -3.84761666971656E-15  8.21071288262759E-02
 cg2d: Sum(rhs),rhsMax =  -3.92481186439753E-15  8.12189881040279E-02
 cg2d: Sum(rhs),rhsMax =  -3.87623960707018E-15  8.03026739713450E-02
 cg2d: Sum(rhs),rhsMax =  -3.83547360538472E-15  7.93770043900613E-02
 cg2d: Sum(rhs),rhsMax =  -3.91874033223161E-15  7.84601886712040E-02
 cg2d: Sum(rhs),rhsMax =  -4.21017387619571E-15  7.75674593410272E-02
 cg2d: Sum(rhs),rhsMax =  -3.96210841913103E-15  7.67092231219048E-02
 cg2d: Sum(rhs),rhsMax =  -3.95863897217907E-15  7.58900040803460E-02
 cg2d: Sum(rhs),rhsMax =  -4.18415302405606E-15  7.51083195992424E-02
 cg2d: Sum(rhs),rhsMax =  -4.69069227904129E-15  7.43574807144070E-02
 cg2d: Sum(rhs),rhsMax =  -4.85722573273506E-15  7.36271659906873E-02
 cg2d: Sum(rhs),rhsMax =  -4.71150896075301E-15  7.29055035055056E-02
 cg2d: Sum(rhs),rhsMax =  -4.78783679369599E-15  7.21813246408312E-02
 --> objf_test(bi,bj)   = -0.849803596526138E+00
 --> objf_tracer(bi,bj) =  0.000000000000000E+00
 --> objf_atl(bi,bj)    =  0.000000000000000E+00
  local fc = -0.849803596526138E+00
 global fc = -0.849803596526138E+00
(PID.TID 0000.0001)  MDSREADFIELD: opening file: xx_depth.0000000000.001.001.data
 grad-res -------------------------------
 grad-res     0   19    4    5    1   -.849803598E+00 -.849803599E+00 -.849803597E+00
 grad-res     0   19   19   19   20   -.141677634E-04 -.141776951E-04 -.701008409E-03
(PID.TID 0000.0001)       precision_grdchk_result ADM    -8.49803597943908E-01    -1.41677634077350E-05
 ph-grd  ierr ---------------------------
 ph-grd  ierr =  0, icomp =  19, ichknum =  19
(PID.TID 0000.0001)  MDSREADFIELD: opening file: adxx_depth.0000000000.001.001.data
(PID.TID 0000.0001)  MDSREADFIELD: opening file: xx_depth.0000000000.001.001.data
(PID.TID 0000.0001)  MDSREADFIELD: opening global file: walls.bigRidge
(PID.TID 0000.0001) // =======================================================
(PID.TID 0000.0001) // Field Bottom depths (ini_depths) at iteration          1
(PID.TID 0000.0001) // CMIN =         -5.000000000000000E+03
(PID.TID 0000.0001) // CMAX =         -2.000000000000000E+03
(PID.TID 0000.0001) // CINT =          1.111111111111111E+02
(PID.TID 0000.0001) // SYMBOLS (CMIN->CMAX): -abcdefghijklmnopqrstuvwxyz+
(PID.TID 0000.0001) //                  0.0: .
(PID.TID 0000.0001) // RANGE I (Lo:Hi:Step):(  -1:   7:   1)
(PID.TID 0000.0001) // RANGE J (Lo:Hi:Step):(   7:  -1:  -1)
(PID.TID 0000.0001) // RANGE K (Lo:Hi:Step):(   1:   1:   1)
(PID.TID 0000.0001) // =======================================================
(PID.TID 0000.0001) K =   1
(PID.TID 0000.0001) //
(PID.TID 0000.0001) // |--J--|*01234567
(PID.TID 0000.0001) //      7 ----+----
(PID.TID 0000.0001) //      6 .........
(PID.TID 0000.0001) //      5 ----+----
(PID.TID 0000.0001) //      4 ----+----
(PID.TID 0000.0001) //      3 ----+----
(PID.TID 0000.0001) //      2 ----+----
(PID.TID 0000.0001) //      1 .........
(PID.TID 0000.0001) //      0 ----+----
(PID.TID 0000.0001) //     -1 ----+----
(PID.TID 0000.0001) // =======================================================
(PID.TID 0000.0001) // END OF FIELD                                          =
(PID.TID 0000.0001) // =======================================================
(PID.TID 0000.0001) 
(PID.TID 0000.0001) // =======================================================
(PID.TID 0000.0001) // Field Model R_low (ini_masks_etc) at iteration          1
(PID.TID 0000.0001) // CMIN =         -5.000000000000000E+03
(PID.TID 0000.0001) // CMAX =         -2.000000000000000E+03
(PID.TID 0000.0001) // CINT =          1.111111111111111E+02
(PID.TID 0000.0001) // SYMBOLS (CMIN->CMAX): -abcdefghijklmnopqrstuvwxyz+
(PID.TID 0000.0001) //                  0.0: .
(PID.TID 0000.0001) // RANGE I (Lo:Hi:Step):(  -1:   7:   1)
(PID.TID 0000.0001) // RANGE J (Lo:Hi:Step):(   7:  -1:  -1)
(PID.TID 0000.0001) // RANGE K (Lo:Hi:Step):(   1:   1:   1)
(PID.TID 0000.0001) // =======================================================
(PID.TID 0000.0001) K =   1
(PID.TID 0000.0001) //
(PID.TID 0000.0001) // |--J--|*01234567
(PID.TID 0000.0001) //      7 ----+----
(PID.TID 0000.0001) //      6 .........
(PID.TID 0000.0001) //      5 ----+----
(PID.TID 0000.0001) //      4 ----+----
(PID.TID 0000.0001) //      3 ----+----
(PID.TID 0000.0001) //      2 ----+----
(PID.TID 0000.0001) //      1 .........
(PID.TID 0000.0001) //      0 ----+----
(PID.TID 0000.0001) //     -1 ----+----
(PID.TID 0000.0001) // =======================================================
(PID.TID 0000.0001) // END OF FIELD                                          =
(PID.TID 0000.0001) // =======================================================
(PID.TID 0000.0001) 
(PID.TID 0000.0001) // =======================================================
(PID.TID 0000.0001) // Field Model Ro_surf (ini_masks_etc) at iteration          1
(PID.TID 0000.0001) // CMIN =          2.273736754432321E-13
(PID.TID 0000.0001) // CMAX =          2.273736754432321E-13
(PID.TID 0000.0001) // CINT =          0.000000000000000E+00
(PID.TID 0000.0001) // SYMBOLS (CMIN->CMAX): -abcdefghijklmnopqrstuvwxyz+
(PID.TID 0000.0001) //                  0.0: .
(PID.TID 0000.0001) // RANGE I (Lo:Hi:Step):(  -1:   7:   1)
(PID.TID 0000.0001) // RANGE J (Lo:Hi:Step):(   7:  -1:  -1)
(PID.TID 0000.0001) // RANGE K (Lo:Hi:Step):(   1:   1:   1)
(PID.TID 0000.0001) // =======================================================
(PID.TID 0000.0001) // =======================================================
(PID.TID 0000.0001) // END OF FIELD                                          =
(PID.TID 0000.0001) // =======================================================
(PID.TID 0000.0001) 
(PID.TID 0000.0001) // =======================================================
(PID.TID 0000.0001) // Field hFacC at iteration          1
(PID.TID 0000.0001) // CMIN =          1.000000000000000E+00
(PID.TID 0000.0001) // CMAX =          1.000000000000000E+00
(PID.TID 0000.0001) // CINT =          0.000000000000000E+00
(PID.TID 0000.0001) // SYMBOLS (CMIN->CMAX): -abcdefghijklmnopqrstuvwxyz+
(PID.TID 0000.0001) //                  0.0: .
(PID.TID 0000.0001) // RANGE I (Lo:Hi:Step):(  -1:   7:   1)
(PID.TID 0000.0001) // RANGE J (Lo:Hi:Step):(   7:  -1:  -1)
(PID.TID 0000.0001) // RANGE K (Lo:Hi:Step):(   1:   1:   1)
(PID.TID 0000.0001) // =======================================================
(PID.TID 0000.0001) // =======================================================
(PID.TID 0000.0001) // END OF FIELD                                          =
(PID.TID 0000.0001) // =======================================================
(PID.TID 0000.0001) 
(PID.TID 0000.0001) // =======================================================
(PID.TID 0000.0001) // Field hFacW at iteration          1
(PID.TID 0000.0001) // CMIN =          1.000000000000000E+00
(PID.TID 0000.0001) // CMAX =          1.000000000000000E+00
(PID.TID 0000.0001) // CINT =          0.000000000000000E+00
(PID.TID 0000.0001) // SYMBOLS (CMIN->CMAX): -abcdefghijklmnopqrstuvwxyz+
(PID.TID 0000.0001) //                  0.0: .
(PID.TID 0000.0001) // RANGE I (Lo:Hi:Step):(  -1:   7:   1)
(PID.TID 0000.0001) // RANGE J (Lo:Hi:Step):(   7:  -1:  -1)
(PID.TID 0000.0001) // RANGE K (Lo:Hi:Step):(   1:   1:   1)
(PID.TID 0000.0001) // =======================================================
(PID.TID 0000.0001) // =======================================================
(PID.TID 0000.0001) // END OF FIELD                                          =
(PID.TID 0000.0001) // =======================================================
(PID.TID 0000.0001) 
(PID.TID 0000.0001) // =======================================================
(PID.TID 0000.0001) // Field hFacS at iteration          1
(PID.TID 0000.0001) // CMIN =          1.000000000000000E+00
(PID.TID 0000.0001) // CMAX =          1.000000000000000E+00
(PID.TID 0000.0001) // CINT =          0.000000000000000E+00
(PID.TID 0000.0001) // SYMBOLS (CMIN->CMAX): -abcdefghijklmnopqrstuvwxyz+
(PID.TID 0000.0001) //                  0.0: .
(PID.TID 0000.0001) // RANGE I (Lo:Hi:Step):(  -1:   7:   1)
(PID.TID 0000.0001) // RANGE J (Lo:Hi:Step):(   7:  -1:  -1)
(PID.TID 0000.0001) // RANGE K (Lo:Hi:Step):(   1:   1:   1)
(PID.TID 0000.0001) // =======================================================
(PID.TID 0000.0001) // =======================================================
(PID.TID 0000.0001) // END OF FIELD                                          =
(PID.TID 0000.0001) // =======================================================
(PID.TID 0000.0001) 
(PID.TID 0000.0001) %MON surfExpanfCori_max           =  -1.0735540000000E-04
(PID.TID 0000.0001) %MON surfExpanfCori_min           =  -1.1783060000000E-04
(PID.TID 0000.0001) %MON surfExpanfCori_mean          =  -1.1259300000000E-04
(PID.TID 0000.0001) %MON surfExpanfCori_sd            =   3.7035424771427E-06
(PID.TID 0000.0001) %MON surfExpanfCoriG_max          =  -1.0866480000000E-04
(PID.TID 0000.0001) %MON surfExpanfCoriG_min          =  -1.1914000000000E-04
(PID.TID 0000.0001) %MON surfExpanfCoriG_mean         =  -1.1390240000000E-04
(PID.TID 0000.0001) %MON surfExpanfCoriG_sd           =   3.7035424771427E-06
(PID.TID 0000.0001) %MON surfExpanfCoriCos_max        =   0.0000000000000E+00
(PID.TID 0000.0001) %MON surfExpanfCoriCos_min        =   0.0000000000000E+00
(PID.TID 0000.0001) %MON surfExpanfCoriCos_mean       =   0.0000000000000E+00
(PID.TID 0000.0001) %MON surfExpanfCoriCos_sd         =   0.0000000000000E+00
(PID.TID 0000.0001) INI_CG2D: CG2D normalisation factor =  1.9999999999999996E-04
(PID.TID 0000.0001) 
                     ctrl_depth_ini: ctrl update R_low,
                                     adding the control vector.
(PID.TID 0000.0001)  MDSREADFIELD: opening file: xx_depth.0000000000.001.001.data
(PID.TID 0000.0001) // =======================================================
(PID.TID 0000.0001) // Field Model Ro_surf (update_masks_etc) at iteration          1
(PID.TID 0000.0001) // CMIN =          2.273736754432321E-13
(PID.TID 0000.0001) // CMAX =          2.273736754432321E-13
(PID.TID 0000.0001) // CINT =          0.000000000000000E+00
(PID.TID 0000.0001) // SYMBOLS (CMIN->CMAX): -abcdefghijklmnopqrstuvwxyz+
(PID.TID 0000.0001) //                  0.0: .
(PID.TID 0000.0001) // RANGE I (Lo:Hi:Step):(  -1:   7:   1)
(PID.TID 0000.0001) // RANGE J (Lo:Hi:Step):(   7:  -1:  -1)
(PID.TID 0000.0001) // RANGE K (Lo:Hi:Step):(   1:   1:   1)
(PID.TID 0000.0001) // =======================================================
(PID.TID 0000.0001) // =======================================================
(PID.TID 0000.0001) // END OF FIELD                                          =
(PID.TID 0000.0001) // =======================================================
(PID.TID 0000.0001) 
(PID.TID 0000.0001) // =======================================================
(PID.TID 0000.0001) // Field hFacC at iteration          1
(PID.TID 0000.0001) // CMIN =          1.000000000000000E+00
(PID.TID 0000.0001) // CMAX =          1.000000000000000E+00
(PID.TID 0000.0001) // CINT =          0.000000000000000E+00
(PID.TID 0000.0001) // SYMBOLS (CMIN->CMAX): -abcdefghijklmnopqrstuvwxyz+
(PID.TID 0000.0001) //                  0.0: .
(PID.TID 0000.0001) // RANGE I (Lo:Hi:Step):(  -1:   7:   1)
(PID.TID 0000.0001) // RANGE J (Lo:Hi:Step):(   7:  -1:  -1)
(PID.TID 0000.0001) // RANGE K (Lo:Hi:Step):(   1:   1:   1)
(PID.TID 0000.0001) // =======================================================
(PID.TID 0000.0001) // =======================================================
(PID.TID 0000.0001) // END OF FIELD                                          =
(PID.TID 0000.0001) // =======================================================
(PID.TID 0000.0001) 
(PID.TID 0000.0001) // =======================================================
(PID.TID 0000.0001) // Field hFacW at iteration          1
(PID.TID 0000.0001) // CMIN =          1.000000000000000E+00
(PID.TID 0000.0001) // CMAX =          1.000000000000000E+00
(PID.TID 0000.0001) // CINT =          0.000000000000000E+00
(PID.TID 0000.0001) // SYMBOLS (CMIN->CMAX): -abcdefghijklmnopqrstuvwxyz+
(PID.TID 0000.0001) //                  0.0: .
(PID.TID 0000.0001) // RANGE I (Lo:Hi:Step):(  -1:   7:   1)
(PID.TID 0000.0001) // RANGE J (Lo:Hi:Step):(   7:  -1:  -1)
(PID.TID 0000.0001) // RANGE K (Lo:Hi:Step):(   1:   1:   1)
(PID.TID 0000.0001) // =======================================================
(PID.TID 0000.0001) // =======================================================
(PID.TID 0000.0001) // END OF FIELD                                          =
(PID.TID 0000.0001) // =======================================================
(PID.TID 0000.0001) 
(PID.TID 0000.0001) // =======================================================
(PID.TID 0000.0001) // Field hFacS at iteration          1
(PID.TID 0000.0001) // CMIN =          1.000000000000000E+00
(PID.TID 0000.0001) // CMAX =          1.000000000000000E+00
(PID.TID 0000.0001) // CINT =          0.000000000000000E+00
(PID.TID 0000.0001) // SYMBOLS (CMIN->CMAX): -abcdefghijklmnopqrstuvwxyz+
(PID.TID 0000.0001) //                  0.0: .
(PID.TID 0000.0001) // RANGE I (Lo:Hi:Step):(  -1:   7:   1)
(PID.TID 0000.0001) // RANGE J (Lo:Hi:Step):(   7:  -1:  -1)
(PID.TID 0000.0001) // RANGE K (Lo:Hi:Step):(   1:   1:   1)
(PID.TID 0000.0001) // =======================================================
(PID.TID 0000.0001) // =======================================================
(PID.TID 0000.0001) // END OF FIELD                                          =
(PID.TID 0000.0001) // =======================================================
(PID.TID 0000.0001) 
(PID.TID 0000.0001) // =======================================================
(PID.TID 0000.0001) // Field Initial Temperature at iteration          1
(PID.TID 0000.0001) // CMIN =          4.000000000000000E+00
(PID.TID 0000.0001) // CMAX =          4.000000000000000E+00
(PID.TID 0000.0001) // CINT =          0.000000000000000E+00
(PID.TID 0000.0001) // SYMBOLS (CMIN->CMAX): -abcdefghijklmnopqrstuvwxyz+
(PID.TID 0000.0001) //                  0.0: .
(PID.TID 0000.0001) // RANGE I (Lo:Hi:Step):(   1:   5:   1)
(PID.TID 0000.0001) // RANGE J (Lo:Hi:Step):(   5:   1:  -1)
(PID.TID 0000.0001) // RANGE K (Lo:Hi:Step):(   1:   1:   1)
(PID.TID 0000.0001) // =======================================================
(PID.TID 0000.0001) // =======================================================
(PID.TID 0000.0001) // END OF FIELD                                          =
(PID.TID 0000.0001) // =======================================================
(PID.TID 0000.0001) 
(PID.TID 0000.0001) // =======================================================
(PID.TID 0000.0001) // Field Initial Salinity at iteration          1
(PID.TID 0000.0001) // CMIN =          3.500000000000000E+01
(PID.TID 0000.0001) // CMAX =          3.500000000000000E+01
(PID.TID 0000.0001) // CINT =          0.000000000000000E+00
(PID.TID 0000.0001) // SYMBOLS (CMIN->CMAX): -abcdefghijklmnopqrstuvwxyz+
(PID.TID 0000.0001) //                  0.0: .
(PID.TID 0000.0001) // RANGE I (Lo:Hi:Step):(   1:   5:   1)
(PID.TID 0000.0001) // RANGE J (Lo:Hi:Step):(   5:   1:  -1)
(PID.TID 0000.0001) // RANGE K (Lo:Hi:Step):(   1:   1:   1)
(PID.TID 0000.0001) // =======================================================
(PID.TID 0000.0001) // =======================================================
(PID.TID 0000.0001) // END OF FIELD                                          =
(PID.TID 0000.0001) // =======================================================
(PID.TID 0000.0001) 
(PID.TID 0000.0001) Start initial hydrostatic pressure computation
(PID.TID 0000.0001) Pressure is predetermined for buoyancyRelation OCEANIC
(PID.TID 0000.0001) 
(PID.TID 0000.0001)  MDSREADFIELD: opening global file: windx.sin_y
(PID.TID 0000.0001) // =======================================================
(PID.TID 0000.0001) // Model current state
(PID.TID 0000.0001) // =======================================================
(PID.TID 0000.0001) 
 cg2d: Sum(rhs),rhsMax =   0.00000000000000E+00  0.00000000000000E+00
 cg2d: Sum(rhs),rhsMax =   4.68375338513738E-16  2.62483626325265E-03
 cg2d: Sum(rhs),rhsMax =   4.64905891561784E-16  5.13362633360820E-03
 cg2d: Sum(rhs),rhsMax =   7.58941520739853E-17  7.16168459268773E-03
 cg2d: Sum(rhs),rhsMax =   7.38992200766120E-16  9.29466755967330E-03
 cg2d: Sum(rhs),rhsMax =   1.00613961606655E-15  1.15304356794715E-02
 cg2d: Sum(rhs),rhsMax =   1.26808286093905E-15  1.37809802350948E-02
 cg2d: Sum(rhs),rhsMax =   8.39606162372775E-16  1.60011247466463E-02
 cg2d: Sum(rhs),rhsMax =   2.35922392732846E-16  1.82027337935129E-02
 cg2d: Sum(rhs),rhsMax =   2.49800180540660E-16  2.04493560900250E-02
 cg2d: Sum(rhs),rhsMax =   3.60822483003176E-16  2.25706027774392E-02
 cg2d: Sum(rhs),rhsMax =   3.74700270810990E-16  2.45301657204869E-02
 cg2d: Sum(rhs),rhsMax =  -1.66533453693773E-16  2.63097944426486E-02
 cg2d: Sum(rhs),rhsMax =  -3.46944695195361E-16  2.79110497278751E-02
 cg2d: Sum(rhs),rhsMax =   2.08166817117217E-16  2.93538602456812E-02
 cg2d: Sum(rhs),rhsMax =  -4.09394740330526E-16  3.06720439195696E-02
 cg2d: Sum(rhs),rhsMax =  -1.87350135405495E-16  3.19067816711550E-02
 cg2d: Sum(rhs),rhsMax =  -6.80011602582908E-16  3.30992667756824E-02
 cg2d: Sum(rhs),rhsMax =  -7.07767178198537E-16  3.42837432977295E-02
 cg2d: Sum(rhs),rhsMax =  -8.53483950180589E-16  3.54819650937127E-02
 cg2d: Sum(rhs),rhsMax =  -8.74300631892311E-16  3.66998058633263E-02
 cg2d: Sum(rhs),rhsMax =   2.35922392732846E-16  3.79264045699933E-02
 cg2d: Sum(rhs),rhsMax =   3.74700270810990E-16  3.91358858605504E-02
 cg2d: Sum(rhs),rhsMax =  -8.04911692853238E-16  4.02913639500855E-02
 cg2d: Sum(rhs),rhsMax =  -1.87350135405495E-15  4.13506294931580E-02
 cg2d: Sum(rhs),rhsMax =  -2.38697950294409E-15  4.22726606968823E-02
 cg2d: Sum(rhs),rhsMax =  -2.76167977375508E-15  4.30239435572059E-02
 cg2d: Sum(rhs),rhsMax =  -2.72004641033163E-15  4.35835862593084E-02
 cg2d: Sum(rhs),rhsMax =  -3.16413562018170E-15  4.39463978901831E-02
 cg2d: Sum(rhs),rhsMax =  -3.26128013483640E-15  4.41234515062800E-02
 cg2d: Sum(rhs),rhsMax =  -2.81719092498633E-15  4.41400962694581E-02
 cg2d: Sum(rhs),rhsMax =  -3.46944695195361E-15  4.40318241784504E-02
 cg2d: Sum(rhs),rhsMax =  -3.17801340798951E-15  4.38387397923015E-02
 cg2d: Sum(rhs),rhsMax =  -3.23352455922077E-15  4.54379563143646E-02
 cg2d: Sum(rhs),rhsMax =  -3.73312492030209E-15  4.77259344514106E-02
 cg2d: Sum(rhs),rhsMax =  -3.88578058618805E-15  4.99949946076332E-02
 cg2d: Sum(rhs),rhsMax =  -3.46944695195361E-15  5.22073349717332E-02
 cg2d: Sum(rhs),rhsMax =  -3.27515792264421E-15  5.43317158682156E-02
 cg2d: Sum(rhs),rhsMax =  -2.56739074444567E-15  5.63476438207349E-02
 cg2d: Sum(rhs),rhsMax =  -2.85882428840978E-15  5.82478251635114E-02
 cg2d: Sum(rhs),rhsMax =  -3.46944695195361E-15  6.00385231805916E-02
 cg2d: Sum(rhs),rhsMax =  -2.88657986402541E-15  6.17377933736116E-02
 cg2d: Sum(rhs),rhsMax =  -2.47024622979097E-15  6.33719187705838E-02
 cg2d: Sum(rhs),rhsMax =  -2.16493489801906E-15  6.49706566719611E-02
 cg2d: Sum(rhs),rhsMax =  -2.66453525910038E-15  6.65620860376841E-02
 cg2d: Sum(rhs),rhsMax =  -3.41393580072236E-15  6.81678817803911E-02
 cg2d: Sum(rhs),rhsMax =  -3.46944695195361E-15  6.97997402151363E-02
 cg2d: Sum(rhs),rhsMax =  -3.55271367880050E-15  7.14574673756298E-02
 cg2d: Sum(rhs),rhsMax =  -3.60822483003176E-15  7.31289634592193E-02
 cg2d: Sum(rhs),rhsMax =  -4.24660306919122E-15  7.47920406585406E-02
 cg2d: Sum(rhs),rhsMax =  -3.91353616180368E-15  7.64177411233293E-02
 cg2d: Sum(rhs),rhsMax =  -4.19109191795997E-15  7.79746105853388E-02
 cg2d: Sum(rhs),rhsMax =  -3.71924713249427E-15  7.94332555848506E-02
 cg2d: Sum(rhs),rhsMax =  -3.91353616180368E-15  8.07704834495044E-02
 cg2d: Sum(rhs),rhsMax =  -4.21884749357559E-15  8.19723990596401E-02
 cg2d: Sum(rhs),rhsMax =  -3.66373598126302E-15  8.30360027430625E-02
 cg2d: Sum(rhs),rhsMax =  -3.46944695195361E-15  8.39690757493273E-02
 cg2d: Sum(rhs),rhsMax =  -3.85802501057242E-15  8.47884156073654E-02
 cg2d: Sum(rhs),rhsMax =  -4.09394740330526E-15  8.55167464753846E-02
 cg2d: Sum(rhs),rhsMax =  -4.21884749357559E-15  8.61788333875075E-02
 cg2d: Sum(rhs),rhsMax =  -3.95516952522712E-15  8.67974394651330E-02
 cg2d: Sum(rhs),rhsMax =  -4.34374758384592E-15  8.73897661328001E-02
 cg2d: Sum(rhs),rhsMax =  -4.76008121808036E-15  8.79649139796463E-02
 cg2d: Sum(rhs),rhsMax =  -4.87110352054287E-15  8.85227199338114E-02
 cg2d: Sum(rhs),rhsMax =  -4.66293670342566E-15  8.90540994653378E-02
 cg2d: Sum(rhs),rhsMax =  -4.52415882534751E-15  8.95427880865899E-02
 cg2d: Sum(rhs),rhsMax =  -5.00988139862102E-15  8.99681686787450E-02
 cg2d: Sum(rhs),rhsMax =  -5.05845365594837E-15  9.03087175299653E-02
 cg2d: Sum(rhs),rhsMax =  -4.94049245958195E-15  9.05455214507587E-02
 cg2d: Sum(rhs),rhsMax =  -5.28743715477731E-15  9.06653206822986E-02
 cg2d: Sum(rhs),rhsMax =  -5.53029844141406E-15  9.06626168876299E-02
 cg2d: Sum(rhs),rhsMax =  -5.07233144375618E-15  9.05405401999755E-02
 cg2d: Sum(rhs),rhsMax =  -5.31866217734489E-15  9.03103706264385E-02
 cg2d: Sum(rhs),rhsMax =  -6.10622663543836E-15  8.99898247397706E-02
 cg2d: Sum(rhs),rhsMax =  -6.26061702480030E-15  8.96004125760744E-02
 cg2d: Sum(rhs),rhsMax =  -6.09516777327901E-15  8.91643094012670E-02
 cg2d: Sum(rhs),rhsMax =  -5.87897786008540E-15  8.87012500760249E-02
 cg2d: Sum(rhs),rhsMax =  -5.73152636462737E-15  8.82259322948951E-02
 cg2d: Sum(rhs),rhsMax =  -5.76275138719495E-15  8.77463165487949E-02
 cg2d: Sum(rhs),rhsMax =  -5.75234304633909E-15  8.72630554287401E-02
 cg2d: Sum(rhs),rhsMax =  -5.75581249329105E-15  8.67701005886177E-02
 cg2d: Sum(rhs),rhsMax =  -6.13398221105399E-15  8.62563520740141E-02
 cg2d: Sum(rhs),rhsMax =  -6.21377949094892E-15  8.57080589560726E-02
 cg2d: Sum(rhs),rhsMax =  -6.41847686111419E-15  8.51115736886652E-02
 cg2d: Sum(rhs),rhsMax =  -6.37337405073879E-15  8.44560191023559E-02
 cg2d: Sum(rhs),rhsMax =  -6.35602681597902E-15  8.37354514492507E-02
 cg2d: Sum(rhs),rhsMax =  -6.76021738588162E-15  8.29501909730789E-02
 cg2d: Sum(rhs),rhsMax =  -6.51215192881693E-15  8.21071292882560E-02
 cg2d: Sum(rhs),rhsMax =  -6.33434277252931E-15  8.12189885806624E-02
 cg2d: Sum(rhs),rhsMax =  -6.33781221948126E-15  8.03026744627378E-02
 cg2d: Sum(rhs),rhsMax =  -6.58674503828394E-15  7.93770048965538E-02
 cg2d: Sum(rhs),rhsMax =  -6.95103696823907E-15  7.84601891931775E-02
 cg2d: Sum(rhs),rhsMax =  -6.56592835657221E-15  7.75674598786975E-02
 cg2d: Sum(rhs),rhsMax =  -5.71764857681956E-15  7.67092236751406E-02
 cg2d: Sum(rhs),rhsMax =  -5.98132654516803E-15  7.58900046485402E-02
 cg2d: Sum(rhs),rhsMax =  -6.30051566474776E-15  7.51083201812555E-02
 cg2d: Sum(rhs),rhsMax =  -6.75154376850173E-15  7.43574813085890E-02
 cg2d: Sum(rhs),rhsMax =  -6.57807142090405E-15  7.36271665949748E-02
 cg2d: Sum(rhs),rhsMax =  -5.99520433297585E-15  7.29055041175757E-02
 cg2d: Sum(rhs),rhsMax =  -6.02989880249538E-15  7.21813252582882E-02
 --> objf_test(bi,bj)   = -0.849803616249091E+00
 --> objf_tracer(bi,bj) =  0.000000000000000E+00
 --> objf_atl(bi,bj)    =  0.000000000000000E+00
  local fc = -0.849803616249091E+00
 global fc = -0.849803616249091E+00
 ph-check fcpertplus =  -0.849803616
(PID.TID 0000.0001)  MDSREADFIELD: opening file: xx_depth.0000000000.001.001.data
 ph-check fcpertminus =  -0.849803598
(PID.TID 0000.0001)  MDSREADFIELD: opening file: xx_depth.0000000000.001.001.data
(PID.TID 0000.0001)  MDSREADFIELD: opening global file: walls.bigRidge
(PID.TID 0000.0001) // =======================================================
(PID.TID 0000.0001) // Field Bottom depths (ini_depths) at iteration          1
(PID.TID 0000.0001) // CMIN =         -5.000000000000000E+03
(PID.TID 0000.0001) // CMAX =         -2.000000000000000E+03
(PID.TID 0000.0001) // CINT =          1.111111111111111E+02
(PID.TID 0000.0001) // SYMBOLS (CMIN->CMAX): -abcdefghijklmnopqrstuvwxyz+
(PID.TID 0000.0001) //                  0.0: .
(PID.TID 0000.0001) // RANGE I (Lo:Hi:Step):(  -1:   7:   1)
(PID.TID 0000.0001) // RANGE J (Lo:Hi:Step):(   7:  -1:  -1)
(PID.TID 0000.0001) // RANGE K (Lo:Hi:Step):(   1:   1:   1)
(PID.TID 0000.0001) // =======================================================
(PID.TID 0000.0001) K =   1
(PID.TID 0000.0001) //
(PID.TID 0000.0001) // |--J--|*01234567
(PID.TID 0000.0001) //      7 ----+----
(PID.TID 0000.0001) //      6 .........
(PID.TID 0000.0001) //      5 ----+----
(PID.TID 0000.0001) //      4 ----+----
(PID.TID 0000.0001) //      3 ----+----
(PID.TID 0000.0001) //      2 ----+----
(PID.TID 0000.0001) //      1 .........
(PID.TID 0000.0001) //      0 ----+----
(PID.TID 0000.0001) //     -1 ----+----
(PID.TID 0000.0001) // =======================================================
(PID.TID 0000.0001) // END OF FIELD                                          =
(PID.TID 0000.0001) // =======================================================
(PID.TID 0000.0001) 
(PID.TID 0000.0001) // =======================================================
(PID.TID 0000.0001) // Field Model R_low (ini_masks_etc) at iteration          1
(PID.TID 0000.0001) // CMIN =         -5.000000000000000E+03
(PID.TID 0000.0001) // CMAX =         -2.000000000000000E+03
(PID.TID 0000.0001) // CINT =          1.111111111111111E+02
(PID.TID 0000.0001) // SYMBOLS (CMIN->CMAX): -abcdefghijklmnopqrstuvwxyz+
(PID.TID 0000.0001) //                  0.0: .
(PID.TID 0000.0001) // RANGE I (Lo:Hi:Step):(  -1:   7:   1)
(PID.TID 0000.0001) // RANGE J (Lo:Hi:Step):(   7:  -1:  -1)
(PID.TID 0000.0001) // RANGE K (Lo:Hi:Step):(   1:   1:   1)
(PID.TID 0000.0001) // =======================================================
(PID.TID 0000.0001) K =   1
(PID.TID 0000.0001) //
(PID.TID 0000.0001) // |--J--|*01234567
(PID.TID 0000.0001) //      7 ----+----
(PID.TID 0000.0001) //      6 .........
(PID.TID 0000.0001) //      5 ----+----
(PID.TID 0000.0001) //      4 ----+----
(PID.TID 0000.0001) //      3 ----+----
(PID.TID 0000.0001) //      2 ----+----
(PID.TID 0000.0001) //      1 .........
(PID.TID 0000.0001) //      0 ----+----
(PID.TID 0000.0001) //     -1 ----+----
(PID.TID 0000.0001) // =======================================================
(PID.TID 0000.0001) // END OF FIELD                                          =
(PID.TID 0000.0001) // =======================================================
(PID.TID 0000.0001) 
(PID.TID 0000.0001) // =======================================================
(PID.TID 0000.0001) // Field Model Ro_surf (ini_masks_etc) at iteration          1
(PID.TID 0000.0001) // CMIN =          2.273736754432321E-13
(PID.TID 0000.0001) // CMAX =          2.273736754432321E-13
(PID.TID 0000.0001) // CINT =          0.000000000000000E+00
(PID.TID 0000.0001) // SYMBOLS (CMIN->CMAX): -abcdefghijklmnopqrstuvwxyz+
(PID.TID 0000.0001) //                  0.0: .
(PID.TID 0000.0001) // RANGE I (Lo:Hi:Step):(  -1:   7:   1)
(PID.TID 0000.0001) // RANGE J (Lo:Hi:Step):(   7:  -1:  -1)
(PID.TID 0000.0001) // RANGE K (Lo:Hi:Step):(   1:   1:   1)
(PID.TID 0000.0001) // =======================================================
(PID.TID 0000.0001) // =======================================================
(PID.TID 0000.0001) // END OF FIELD                                          =
(PID.TID 0000.0001) // =======================================================
(PID.TID 0000.0001) 
(PID.TID 0000.0001) // =======================================================
(PID.TID 0000.0001) // Field hFacC at iteration          1
(PID.TID 0000.0001) // CMIN =          1.000000000000000E+00
(PID.TID 0000.0001) // CMAX =          1.000000000000000E+00
(PID.TID 0000.0001) // CINT =          0.000000000000000E+00
(PID.TID 0000.0001) // SYMBOLS (CMIN->CMAX): -abcdefghijklmnopqrstuvwxyz+
(PID.TID 0000.0001) //                  0.0: .
(PID.TID 0000.0001) // RANGE I (Lo:Hi:Step):(  -1:   7:   1)
(PID.TID 0000.0001) // RANGE J (Lo:Hi:Step):(   7:  -1:  -1)
(PID.TID 0000.0001) // RANGE K (Lo:Hi:Step):(   1:   1:   1)
(PID.TID 0000.0001) // =======================================================
(PID.TID 0000.0001) // =======================================================
(PID.TID 0000.0001) // END OF FIELD                                          =
(PID.TID 0000.0001) // =======================================================
(PID.TID 0000.0001) 
(PID.TID 0000.0001) // =======================================================
(PID.TID 0000.0001) // Field hFacW at iteration          1
(PID.TID 0000.0001) // CMIN =          1.000000000000000E+00
(PID.TID 0000.0001) // CMAX =          1.000000000000000E+00
(PID.TID 0000.0001) // CINT =          0.000000000000000E+00
(PID.TID 0000.0001) // SYMBOLS (CMIN->CMAX): -abcdefghijklmnopqrstuvwxyz+
(PID.TID 0000.0001) //                  0.0: .
(PID.TID 0000.0001) // RANGE I (Lo:Hi:Step):(  -1:   7:   1)
(PID.TID 0000.0001) // RANGE J (Lo:Hi:Step):(   7:  -1:  -1)
(PID.TID 0000.0001) // RANGE K (Lo:Hi:Step):(   1:   1:   1)
(PID.TID 0000.0001) // =======================================================
(PID.TID 0000.0001) // =======================================================
(PID.TID 0000.0001) // END OF FIELD                                          =
(PID.TID 0000.0001) // =======================================================
(PID.TID 0000.0001) 
(PID.TID 0000.0001) // =======================================================
(PID.TID 0000.0001) // Field hFacS at iteration          1
(PID.TID 0000.0001) // CMIN =          1.000000000000000E+00
(PID.TID 0000.0001) // CMAX =          1.000000000000000E+00
(PID.TID 0000.0001) // CINT =          0.000000000000000E+00
(PID.TID 0000.0001) // SYMBOLS (CMIN->CMAX): -abcdefghijklmnopqrstuvwxyz+
(PID.TID 0000.0001) //                  0.0: .
(PID.TID 0000.0001) // RANGE I (Lo:Hi:Step):(  -1:   7:   1)
(PID.TID 0000.0001) // RANGE J (Lo:Hi:Step):(   7:  -1:  -1)
(PID.TID 0000.0001) // RANGE K (Lo:Hi:Step):(   1:   1:   1)
(PID.TID 0000.0001) // =======================================================
(PID.TID 0000.0001) // =======================================================
(PID.TID 0000.0001) // END OF FIELD                                          =
(PID.TID 0000.0001) // =======================================================
(PID.TID 0000.0001) 
(PID.TID 0000.0001) %MON surfExpanfCori_max           =  -1.0735540000000E-04
(PID.TID 0000.0001) %MON surfExpanfCori_min           =  -1.1783060000000E-04
(PID.TID 0000.0001) %MON surfExpanfCori_mean          =  -1.1259300000000E-04
(PID.TID 0000.0001) %MON surfExpanfCori_sd            =   3.7035424771427E-06
(PID.TID 0000.0001) %MON surfExpanfCoriG_max          =  -1.0866480000000E-04
(PID.TID 0000.0001) %MON surfExpanfCoriG_min          =  -1.1914000000000E-04
(PID.TID 0000.0001) %MON surfExpanfCoriG_mean         =  -1.1390240000000E-04
(PID.TID 0000.0001) %MON surfExpanfCoriG_sd           =   3.7035424771427E-06
(PID.TID 0000.0001) %MON surfExpanfCoriCos_max        =   0.0000000000000E+00
(PID.TID 0000.0001) %MON surfExpanfCoriCos_min        =   0.0000000000000E+00
(PID.TID 0000.0001) %MON surfExpanfCoriCos_mean       =   0.0000000000000E+00
(PID.TID 0000.0001) %MON surfExpanfCoriCos_sd         =   0.0000000000000E+00
(PID.TID 0000.0001) INI_CG2D: CG2D normalisation factor =  1.9999999999999996E-04
(PID.TID 0000.0001) 
                     ctrl_depth_ini: ctrl update R_low,
                                     adding the control vector.
(PID.TID 0000.0001)  MDSREADFIELD: opening file: xx_depth.0000000000.001.001.data
(PID.TID 0000.0001) // =======================================================
(PID.TID 0000.0001) // Field Model Ro_surf (update_masks_etc) at iteration          1
(PID.TID 0000.0001) // CMIN =          2.273736754432321E-13
(PID.TID 0000.0001) // CMAX =          2.273736754432321E-13
(PID.TID 0000.0001) // CINT =          0.000000000000000E+00
(PID.TID 0000.0001) // SYMBOLS (CMIN->CMAX): -abcdefghijklmnopqrstuvwxyz+
(PID.TID 0000.0001) //                  0.0: .
(PID.TID 0000.0001) // RANGE I (Lo:Hi:Step):(  -1:   7:   1)
(PID.TID 0000.0001) // RANGE J (Lo:Hi:Step):(   7:  -1:  -1)
(PID.TID 0000.0001) // RANGE K (Lo:Hi:Step):(   1:   1:   1)
(PID.TID 0000.0001) // =======================================================
(PID.TID 0000.0001) // =======================================================
(PID.TID 0000.0001) // END OF FIELD                                          =
(PID.TID 0000.0001) // =======================================================
(PID.TID 0000.0001) 
(PID.TID 0000.0001) // =======================================================
(PID.TID 0000.0001) // Field hFacC at iteration          1
(PID.TID 0000.0001) // CMIN =          1.000000000000000E+00
(PID.TID 0000.0001) // CMAX =          1.000000000000000E+00
(PID.TID 0000.0001) // CINT =          0.000000000000000E+00
(PID.TID 0000.0001) // SYMBOLS (CMIN->CMAX): -abcdefghijklmnopqrstuvwxyz+
(PID.TID 0000.0001) //                  0.0: .
(PID.TID 0000.0001) // RANGE I (Lo:Hi:Step):(  -1:   7:   1)
(PID.TID 0000.0001) // RANGE J (Lo:Hi:Step):(   7:  -1:  -1)
(PID.TID 0000.0001) // RANGE K (Lo:Hi:Step):(   1:   1:   1)
(PID.TID 0000.0001) // =======================================================
(PID.TID 0000.0001) // =======================================================
(PID.TID 0000.0001) // END OF FIELD                                          =
(PID.TID 0000.0001) // =======================================================
(PID.TID 0000.0001) 
(PID.TID 0000.0001) // =======================================================
(PID.TID 0000.0001) // Field hFacW at iteration          1
(PID.TID 0000.0001) // CMIN =          1.000000000000000E+00
(PID.TID 0000.0001) // CMAX =          1.000000000000000E+00
(PID.TID 0000.0001) // CINT =          0.000000000000000E+00
(PID.TID 0000.0001) // SYMBOLS (CMIN->CMAX): -abcdefghijklmnopqrstuvwxyz+
(PID.TID 0000.0001) //                  0.0: .
(PID.TID 0000.0001) // RANGE I (Lo:Hi:Step):(  -1:   7:   1)
(PID.TID 0000.0001) // RANGE J (Lo:Hi:Step):(   7:  -1:  -1)
(PID.TID 0000.0001) // RANGE K (Lo:Hi:Step):(   1:   1:   1)
(PID.TID 0000.0001) // =======================================================
(PID.TID 0000.0001) // =======================================================
(PID.TID 0000.0001) // END OF FIELD                                          =
(PID.TID 0000.0001) // =======================================================
(PID.TID 0000.0001) 
(PID.TID 0000.0001) // =======================================================
(PID.TID 0000.0001) // Field hFacS at iteration          1
(PID.TID 0000.0001) // CMIN =          1.000000000000000E+00
(PID.TID 0000.0001) // CMAX =          1.000000000000000E+00
(PID.TID 0000.0001) // CINT =          0.000000000000000E+00
(PID.TID 0000.0001) // SYMBOLS (CMIN->CMAX): -abcdefghijklmnopqrstuvwxyz+
(PID.TID 0000.0001) //                  0.0: .
(PID.TID 0000.0001) // RANGE I (Lo:Hi:Step):(  -1:   7:   1)
(PID.TID 0000.0001) // RANGE J (Lo:Hi:Step):(   7:  -1:  -1)
(PID.TID 0000.0001) // RANGE K (Lo:Hi:Step):(   1:   1:   1)
(PID.TID 0000.0001) // =======================================================
(PID.TID 0000.0001) // =======================================================
(PID.TID 0000.0001) // END OF FIELD                                          =
(PID.TID 0000.0001) // =======================================================
(PID.TID 0000.0001) 
(PID.TID 0000.0001) // =======================================================
(PID.TID 0000.0001) // Field Initial Temperature at iteration          1
(PID.TID 0000.0001) // CMIN =          4.000000000000000E+00
(PID.TID 0000.0001) // CMAX =          4.000000000000000E+00
(PID.TID 0000.0001) // CINT =          0.000000000000000E+00
(PID.TID 0000.0001) // SYMBOLS (CMIN->CMAX): -abcdefghijklmnopqrstuvwxyz+
(PID.TID 0000.0001) //                  0.0: .
(PID.TID 0000.0001) // RANGE I (Lo:Hi:Step):(   1:   5:   1)
(PID.TID 0000.0001) // RANGE J (Lo:Hi:Step):(   5:   1:  -1)
(PID.TID 0000.0001) // RANGE K (Lo:Hi:Step):(   1:   1:   1)
(PID.TID 0000.0001) // =======================================================
(PID.TID 0000.0001) // =======================================================
(PID.TID 0000.0001) // END OF FIELD                                          =
(PID.TID 0000.0001) // =======================================================
(PID.TID 0000.0001) 
(PID.TID 0000.0001) // =======================================================
(PID.TID 0000.0001) // Field Initial Salinity at iteration          1
(PID.TID 0000.0001) // CMIN =          3.500000000000000E+01
(PID.TID 0000.0001) // CMAX =          3.500000000000000E+01
(PID.TID 0000.0001) // CINT =          0.000000000000000E+00
(PID.TID 0000.0001) // SYMBOLS (CMIN->CMAX): -abcdefghijklmnopqrstuvwxyz+
(PID.TID 0000.0001) //                  0.0: .
(PID.TID 0000.0001) // RANGE I (Lo:Hi:Step):(   1:   5:   1)
(PID.TID 0000.0001) // RANGE J (Lo:Hi:Step):(   5:   1:  -1)
(PID.TID 0000.0001) // RANGE K (Lo:Hi:Step):(   1:   1:   1)
(PID.TID 0000.0001) // =======================================================
(PID.TID 0000.0001) // =======================================================
(PID.TID 0000.0001) // END OF FIELD                                          =
(PID.TID 0000.0001) // =======================================================
(PID.TID 0000.0001) 
(PID.TID 0000.0001) Start initial hydrostatic pressure computation
(PID.TID 0000.0001) Pressure is predetermined for buoyancyRelation OCEANIC
(PID.TID 0000.0001) 
(PID.TID 0000.0001)  MDSREADFIELD: opening global file: windx.sin_y
(PID.TID 0000.0001) // =======================================================
(PID.TID 0000.0001) // Model current state
(PID.TID 0000.0001) // =======================================================
(PID.TID 0000.0001) 
 cg2d: Sum(rhs),rhsMax =   0.00000000000000E+00  0.00000000000000E+00
 cg2d: Sum(rhs),rhsMax =   4.68375338513738E-16  2.62483626325265E-03
 cg2d: Sum(rhs),rhsMax =   6.69603261727048E-16  5.13362633360820E-03
 cg2d: Sum(rhs),rhsMax =   4.58834359395865E-16  7.16168459292842E-03
 cg2d: Sum(rhs),rhsMax =   1.04950770296597E-16  9.29466756004697E-03
 cg2d: Sum(rhs),rhsMax =   3.67761376907083E-16  1.15304356800307E-02
 cg2d: Sum(rhs),rhsMax =   1.52655665885959E-16  1.37809802356792E-02
 cg2d: Sum(rhs),rhsMax =   4.89192020225460E-16  1.60011247472115E-02
 cg2d: Sum(rhs),rhsMax =   3.05311331771918E-16  1.82027337889323E-02
 cg2d: Sum(rhs),rhsMax =   7.35522753814166E-16  2.04493560842851E-02
 cg2d: Sum(rhs),rhsMax =   9.29811783123569E-16  2.25706027703805E-02
 cg2d: Sum(rhs),rhsMax =   5.68989300120393E-16  2.45301657119171E-02
 cg2d: Sum(rhs),rhsMax =   4.30211422042248E-16  2.63097944323367E-02
 cg2d: Sum(rhs),rhsMax =   4.16333634234434E-16  2.79110497155534E-02
 cg2d: Sum(rhs),rhsMax =   9.02056207507940E-16  2.93538602310516E-02
 cg2d: Sum(rhs),rhsMax =   1.20042864537595E-15  3.06720439023149E-02
 cg2d: Sum(rhs),rhsMax =   8.67361737988404E-16  3.19067816509521E-02
 cg2d: Sum(rhs),rhsMax =   9.71445146547012E-16  3.30992667522174E-02
 cg2d: Sum(rhs),rhsMax =   2.01227923213310E-16  3.42837432707108E-02
 cg2d: Sum(rhs),rhsMax =   4.78783679369599E-16  3.54819650628826E-02
 cg2d: Sum(rhs),rhsMax =   6.24500451351651E-17  3.66998058284682E-02
 cg2d: Sum(rhs),rhsMax =   1.24900090270330E-16  3.79264045309347E-02
 cg2d: Sum(rhs),rhsMax =  -3.95516952522712E-16  3.91358858171618E-02
 cg2d: Sum(rhs),rhsMax =  -2.49800180540660E-16  4.02913639022748E-02
 cg2d: Sum(rhs),rhsMax =  -1.80411241501588E-16  4.13506294408640E-02
 cg2d: Sum(rhs),rhsMax =  -9.57567358739198E-16  4.22726606400659E-02
 cg2d: Sum(rhs),rhsMax =  -5.68989300120393E-16  4.30239434958428E-02
 cg2d: Sum(rhs),rhsMax =  -1.94289029309402E-16  4.35835861933842E-02
 cg2d: Sum(rhs),rhsMax =  -4.85722573273506E-16  4.39463978196912E-02
 cg2d: Sum(rhs),rhsMax =  -1.05471187339390E-15  4.41234514312243E-02
 cg2d: Sum(rhs),rhsMax =  -1.19348975147204E-15  4.41400961898588E-02
 cg2d: Sum(rhs),rhsMax =  -7.77156117237610E-16  4.40318240943536E-02
 cg2d: Sum(rhs),rhsMax =  -6.52256026967279E-16  4.38387397037905E-02
 cg2d: Sum(rhs),rhsMax =  -3.88578058618805E-16  4.54379565725444E-02
 cg2d: Sum(rhs),rhsMax =  -1.12410081243297E-15  4.77259347148848E-02
 cg2d: Sum(rhs),rhsMax =  -1.42941214420489E-15  4.99949948738051E-02
 cg2d: Sum(rhs),rhsMax =  -1.22124532708767E-15  5.22073352380401E-02
 cg2d: Sum(rhs),rhsMax =  -1.34614541735800E-15  5.43317161322587E-02
 cg2d: Sum(rhs),rhsMax =  -1.54043444666740E-15  5.63476440803619E-02
 cg2d: Sum(rhs),rhsMax =  -1.94289029309402E-15  5.82478254168438E-02
 cg2d: Sum(rhs),rhsMax =  -2.30371277609720E-15  6.00385234259939E-02
 cg2d: Sum(rhs),rhsMax =  -2.30371277609720E-15  6.17377936096132E-02
 cg2d: Sum(rhs),rhsMax =  -1.80411241501588E-15  6.33719189957661E-02
 cg2d: Sum(rhs),rhsMax =  -2.38697950294409E-15  6.49706568848337E-02
 cg2d: Sum(rhs),rhsMax =  -2.33146835171283E-15  6.65620862365694E-02
 cg2d: Sum(rhs),rhsMax =  -1.63757896132211E-15  6.81678819633386E-02
 cg2d: Sum(rhs),rhsMax =  -7.21644966006352E-16  6.97997403798816E-02
 cg2d: Sum(rhs),rhsMax =  -4.44089209850063E-16  7.14574675196040E-02
 cg2d: Sum(rhs),rhsMax =  -2.49800180540660E-16  7.31289635796100E-02
 cg2d: Sum(rhs),rhsMax =  -9.99200722162641E-16  7.47920407523932E-02
 cg2d: Sum(rhs),rhsMax =  -1.30451205393456E-15  7.64177411876753E-02
 cg2d: Sum(rhs),rhsMax =  -1.47104550762833E-15  7.79746106173296E-02
 cg2d: Sum(rhs),rhsMax =  -1.13797860024079E-15  7.94332555818787E-02
 cg2d: Sum(rhs),rhsMax =  -1.58206781009085E-15  8.07704834092935E-02
 cg2d: Sum(rhs),rhsMax =  -1.91513471747840E-15  8.19723989802927E-02
 cg2d: Sum(rhs),rhsMax =  -1.69309011255336E-15  8.30360026230576E-02
 cg2d: Sum(rhs),rhsMax =  -1.27675647831893E-15  8.39690755874734E-02
 cg2d: Sum(rhs),rhsMax =  -8.74300631892311E-16  8.47884154027149E-02
 cg2d: Sum(rhs),rhsMax =  -5.27355936696949E-16  8.55167462271264E-02
 cg2d: Sum(rhs),rhsMax =  -7.63278329429795E-16  8.61788330948555E-02
 cg2d: Sum(rhs),rhsMax =  -7.63278329429795E-16  8.67974391272262E-02
 cg2d: Sum(rhs),rhsMax =  -1.01307850997046E-15  8.73897657486331E-02
 cg2d: Sum(rhs),rhsMax =  -1.38777878078145E-15  8.79649135480377E-02
 cg2d: Sum(rhs),rhsMax =  -1.08246744900953E-15  8.85227194534160E-02
 cg2d: Sum(rhs),rhsMax =  -9.15933995315754E-16  8.90540989346988E-02
 cg2d: Sum(rhs),rhsMax =  -8.88178419700125E-16  8.95427875042227E-02
 cg2d: Sum(rhs),rhsMax =  -1.22124532708767E-15  8.99681680432392E-02
 cg2d: Sum(rhs),rhsMax =  -1.17961196366423E-15  9.03087168400878E-02
 cg2d: Sum(rhs),rhsMax =  -1.07552855510562E-15  9.05455207055435E-02
 cg2d: Sum(rhs),rhsMax =  -7.49400541621981E-16  9.06653198811089E-02
 cg2d: Sum(rhs),rhsMax =  -7.97972798949331E-16  9.06626160301850E-02
 cg2d: Sum(rhs),rhsMax =  -8.11850586757146E-16  9.05405392863380E-02
 cg2d: Sum(rhs),rhsMax =  -3.60822483003176E-16  9.03103696569670E-02
 cg2d: Sum(rhs),rhsMax =  -1.37043154602168E-15  8.99898237150453E-02
 cg2d: Sum(rhs),rhsMax =  -1.43808576158477E-15  8.96004114968084E-02
 cg2d: Sum(rhs),rhsMax =  -2.33266097410256E-15  8.91643082682189E-02
 cg2d: Sum(rhs),rhsMax =  -1.86309301319909E-15  8.87012488899226E-02
 cg2d: Sum(rhs),rhsMax =  -1.64798730217797E-15  8.82259310563883E-02
 cg2d: Sum(rhs),rhsMax =  -1.21083698623181E-15  8.77463152584364E-02
 cg2d: Sum(rhs),rhsMax =  -1.09287578986539E-15  8.72630540870036E-02
 cg2d: Sum(rhs),rhsMax =  -9.40220123979429E-16  8.67700991959438E-02
 cg2d: Sum(rhs),rhsMax =  -1.02001740387436E-15  8.62563506308789E-02
 cg2d: Sum(rhs),rhsMax =  -1.37216626949765E-15  8.57080574630672E-02
 cg2d: Sum(rhs),rhsMax =  -1.62890534394222E-15  8.51115721465707E-02
 cg2d: Sum(rhs),rhsMax =  -2.43381703679546E-15  8.44560175122068E-02
 cg2d: Sum(rhs),rhsMax =  -2.56218657401774E-15  8.37354498123711E-02
 cg2d: Sum(rhs),rhsMax =  -2.26728358310169E-15  8.29501892910914E-02
 cg2d: Sum(rhs),rhsMax =  -2.69185715384701E-15  8.21071275630590E-02
 cg2d: Sum(rhs),rhsMax =  -2.34361141604467E-15  8.12189868143818E-02
 cg2d: Sum(rhs),rhsMax =  -2.13631196066544E-15  8.03026726576591E-02
 cg2d: Sum(rhs),rhsMax =  -2.40085729075190E-15  7.93770030550473E-02
 cg2d: Sum(rhs),rhsMax =  -2.26728358310169E-15  7.84601873176262E-02
 cg2d: Sum(rhs),rhsMax =  -2.05391259555654E-15  7.75674579714381E-02
 cg2d: Sum(rhs),rhsMax =  -1.74860126378462E-15  7.67092217384275E-02
 cg2d: Sum(rhs),rhsMax =  -2.11289319373975E-15  7.58900026845331E-02
 cg2d: Sum(rhs),rhsMax =  -2.52575738102223E-15  7.51083181920348E-02
 cg2d: Sum(rhs),rhsMax =  -2.72698530423554E-15  7.43574792961913E-02
 cg2d: Sum(rhs),rhsMax =  -3.07392999943090E-15  7.36271645614429E-02
 cg2d: Sum(rhs),rhsMax =  -2.74086309204336E-15  7.29055020650136E-02
 cg2d: Sum(rhs),rhsMax =  -2.29677388219329E-15  7.21813231889099E-02
 --> objf_test(bi,bj)   = -0.849803579638725E+00
 --> objf_tracer(bi,bj) =  0.000000000000000E+00
 --> objf_atl(bi,bj)    =  0.000000000000000E+00
  local fc = -0.849803579638725E+00
 global fc = -0.849803579638725E+00
(PID.TID 0000.0001)  MDSREADFIELD: opening file: xx_depth.0000000000.001.001.data
 grad-res -------------------------------
 grad-res     0   20    5    5    1   -.849803598E+00 -.849803616E+00 -.849803580E+00
 grad-res     0   20   20   20   20   -.183052421E-03 -.183051828E-03 0.323985508E-05
(PID.TID 0000.0001)       precision_grdchk_result ADM    -8.49803597943908E-01    -1.83052420648027E-04
 ph-grd  ierr ---------------------------
 ph-grd  ierr =  0, icomp =  20, ichknum =  20
(PID.TID 0000.0001)  MDSREADFIELD: opening global file: walls.bigRidge
(PID.TID 0000.0001) // =======================================================
(PID.TID 0000.0001) // Field Bottom depths (ini_depths) at iteration          1
(PID.TID 0000.0001) // CMIN =         -5.000000000000000E+03
(PID.TID 0000.0001) // CMAX =         -2.000000000000000E+03
(PID.TID 0000.0001) // CINT =          1.111111111111111E+02
(PID.TID 0000.0001) // SYMBOLS (CMIN->CMAX): -abcdefghijklmnopqrstuvwxyz+
(PID.TID 0000.0001) //                  0.0: .
(PID.TID 0000.0001) // RANGE I (Lo:Hi:Step):(  -1:   7:   1)
(PID.TID 0000.0001) // RANGE J (Lo:Hi:Step):(   7:  -1:  -1)
(PID.TID 0000.0001) // RANGE K (Lo:Hi:Step):(   1:   1:   1)
(PID.TID 0000.0001) // =======================================================
(PID.TID 0000.0001) K =   1
(PID.TID 0000.0001) //
(PID.TID 0000.0001) // |--J--|*01234567
(PID.TID 0000.0001) //      7 ----+----
(PID.TID 0000.0001) //      6 .........
(PID.TID 0000.0001) //      5 ----+----
(PID.TID 0000.0001) //      4 ----+----
(PID.TID 0000.0001) //      3 ----+----
(PID.TID 0000.0001) //      2 ----+----
(PID.TID 0000.0001) //      1 .........
(PID.TID 0000.0001) //      0 ----+----
(PID.TID 0000.0001) //     -1 ----+----
(PID.TID 0000.0001) // =======================================================
(PID.TID 0000.0001) // END OF FIELD                                          =
(PID.TID 0000.0001) // =======================================================
(PID.TID 0000.0001) 
(PID.TID 0000.0001) // =======================================================
(PID.TID 0000.0001) // Field Model R_low (ini_masks_etc) at iteration          1
(PID.TID 0000.0001) // CMIN =         -5.000000000000000E+03
(PID.TID 0000.0001) // CMAX =         -2.000000000000000E+03
(PID.TID 0000.0001) // CINT =          1.111111111111111E+02
(PID.TID 0000.0001) // SYMBOLS (CMIN->CMAX): -abcdefghijklmnopqrstuvwxyz+
(PID.TID 0000.0001) //                  0.0: .
(PID.TID 0000.0001) // RANGE I (Lo:Hi:Step):(  -1:   7:   1)
(PID.TID 0000.0001) // RANGE J (Lo:Hi:Step):(   7:  -1:  -1)
(PID.TID 0000.0001) // RANGE K (Lo:Hi:Step):(   1:   1:   1)
(PID.TID 0000.0001) // =======================================================
(PID.TID 0000.0001) K =   1
(PID.TID 0000.0001) //
(PID.TID 0000.0001) // |--J--|*01234567
(PID.TID 0000.0001) //      7 ----+----
(PID.TID 0000.0001) //      6 .........
(PID.TID 0000.0001) //      5 ----+----
(PID.TID 0000.0001) //      4 ----+----
(PID.TID 0000.0001) //      3 ----+----
(PID.TID 0000.0001) //      2 ----+----
(PID.TID 0000.0001) //      1 .........
(PID.TID 0000.0001) //      0 ----+----
(PID.TID 0000.0001) //     -1 ----+----
(PID.TID 0000.0001) // =======================================================
(PID.TID 0000.0001) // END OF FIELD                                          =
(PID.TID 0000.0001) // =======================================================
(PID.TID 0000.0001) 
(PID.TID 0000.0001) // =======================================================
(PID.TID 0000.0001) // Field Model Ro_surf (ini_masks_etc) at iteration          1
(PID.TID 0000.0001) // CMIN =          2.273736754432321E-13
(PID.TID 0000.0001) // CMAX =          2.273736754432321E-13
(PID.TID 0000.0001) // CINT =          0.000000000000000E+00
(PID.TID 0000.0001) // SYMBOLS (CMIN->CMAX): -abcdefghijklmnopqrstuvwxyz+
(PID.TID 0000.0001) //                  0.0: .
(PID.TID 0000.0001) // RANGE I (Lo:Hi:Step):(  -1:   7:   1)
(PID.TID 0000.0001) // RANGE J (Lo:Hi:Step):(   7:  -1:  -1)
(PID.TID 0000.0001) // RANGE K (Lo:Hi:Step):(   1:   1:   1)
(PID.TID 0000.0001) // =======================================================
(PID.TID 0000.0001) // =======================================================
(PID.TID 0000.0001) // END OF FIELD                                          =
(PID.TID 0000.0001) // =======================================================
(PID.TID 0000.0001) 
(PID.TID 0000.0001) // =======================================================
(PID.TID 0000.0001) // Field hFacC at iteration          1
(PID.TID 0000.0001) // CMIN =          1.000000000000000E+00
(PID.TID 0000.0001) // CMAX =          1.000000000000000E+00
(PID.TID 0000.0001) // CINT =          0.000000000000000E+00
(PID.TID 0000.0001) // SYMBOLS (CMIN->CMAX): -abcdefghijklmnopqrstuvwxyz+
(PID.TID 0000.0001) //                  0.0: .
(PID.TID 0000.0001) // RANGE I (Lo:Hi:Step):(  -1:   7:   1)
(PID.TID 0000.0001) // RANGE J (Lo:Hi:Step):(   7:  -1:  -1)
(PID.TID 0000.0001) // RANGE K (Lo:Hi:Step):(   1:   1:   1)
(PID.TID 0000.0001) // =======================================================
(PID.TID 0000.0001) // =======================================================
(PID.TID 0000.0001) // END OF FIELD                                          =
(PID.TID 0000.0001) // =======================================================
(PID.TID 0000.0001) 
(PID.TID 0000.0001) // =======================================================
(PID.TID 0000.0001) // Field hFacW at iteration          1
(PID.TID 0000.0001) // CMIN =          1.000000000000000E+00
(PID.TID 0000.0001) // CMAX =          1.000000000000000E+00
(PID.TID 0000.0001) // CINT =          0.000000000000000E+00
(PID.TID 0000.0001) // SYMBOLS (CMIN->CMAX): -abcdefghijklmnopqrstuvwxyz+
(PID.TID 0000.0001) //                  0.0: .
(PID.TID 0000.0001) // RANGE I (Lo:Hi:Step):(  -1:   7:   1)
(PID.TID 0000.0001) // RANGE J (Lo:Hi:Step):(   7:  -1:  -1)
(PID.TID 0000.0001) // RANGE K (Lo:Hi:Step):(   1:   1:   1)
(PID.TID 0000.0001) // =======================================================
(PID.TID 0000.0001) // =======================================================
(PID.TID 0000.0001) // END OF FIELD                                          =
(PID.TID 0000.0001) // =======================================================
(PID.TID 0000.0001) 
(PID.TID 0000.0001) // =======================================================
(PID.TID 0000.0001) // Field hFacS at iteration          1
(PID.TID 0000.0001) // CMIN =          1.000000000000000E+00
(PID.TID 0000.0001) // CMAX =          1.000000000000000E+00
(PID.TID 0000.0001) // CINT =          0.000000000000000E+00
(PID.TID 0000.0001) // SYMBOLS (CMIN->CMAX): -abcdefghijklmnopqrstuvwxyz+
(PID.TID 0000.0001) //                  0.0: .
(PID.TID 0000.0001) // RANGE I (Lo:Hi:Step):(  -1:   7:   1)
(PID.TID 0000.0001) // RANGE J (Lo:Hi:Step):(   7:  -1:  -1)
(PID.TID 0000.0001) // RANGE K (Lo:Hi:Step):(   1:   1:   1)
(PID.TID 0000.0001) // =======================================================
(PID.TID 0000.0001) // =======================================================
(PID.TID 0000.0001) // END OF FIELD                                          =
(PID.TID 0000.0001) // =======================================================
(PID.TID 0000.0001) 
(PID.TID 0000.0001) %MON surfExpanfCori_max           =  -1.0735540000000E-04
(PID.TID 0000.0001) %MON surfExpanfCori_min           =  -1.1783060000000E-04
(PID.TID 0000.0001) %MON surfExpanfCori_mean          =  -1.1259300000000E-04
(PID.TID 0000.0001) %MON surfExpanfCori_sd            =   3.7035424771427E-06
(PID.TID 0000.0001) %MON surfExpanfCoriG_max          =  -1.0866480000000E-04
(PID.TID 0000.0001) %MON surfExpanfCoriG_min          =  -1.1914000000000E-04
(PID.TID 0000.0001) %MON surfExpanfCoriG_mean         =  -1.1390240000000E-04
(PID.TID 0000.0001) %MON surfExpanfCoriG_sd           =   3.7035424771427E-06
(PID.TID 0000.0001) %MON surfExpanfCoriCos_max        =   0.0000000000000E+00
(PID.TID 0000.0001) %MON surfExpanfCoriCos_min        =   0.0000000000000E+00
(PID.TID 0000.0001) %MON surfExpanfCoriCos_mean       =   0.0000000000000E+00
(PID.TID 0000.0001) %MON surfExpanfCoriCos_sd         =   0.0000000000000E+00
(PID.TID 0000.0001) INI_CG2D: CG2D normalisation factor =  1.9999999999999996E-04
(PID.TID 0000.0001) 
                     ctrl_depth_ini: ctrl update R_low,
                                     adding the control vector.
(PID.TID 0000.0001)  MDSREADFIELD: opening file: xx_depth.0000000000.001.001.data
(PID.TID 0000.0001) // =======================================================
(PID.TID 0000.0001) // Field Model Ro_surf (update_masks_etc) at iteration          1
(PID.TID 0000.0001) // CMIN =          2.273736754432321E-13
(PID.TID 0000.0001) // CMAX =          2.273736754432321E-13
(PID.TID 0000.0001) // CINT =          0.000000000000000E+00
(PID.TID 0000.0001) // SYMBOLS (CMIN->CMAX): -abcdefghijklmnopqrstuvwxyz+
(PID.TID 0000.0001) //                  0.0: .
(PID.TID 0000.0001) // RANGE I (Lo:Hi:Step):(  -1:   7:   1)
(PID.TID 0000.0001) // RANGE J (Lo:Hi:Step):(   7:  -1:  -1)
(PID.TID 0000.0001) // RANGE K (Lo:Hi:Step):(   1:   1:   1)
(PID.TID 0000.0001) // =======================================================
(PID.TID 0000.0001) // =======================================================
(PID.TID 0000.0001) // END OF FIELD                                          =
(PID.TID 0000.0001) // =======================================================
(PID.TID 0000.0001) 
(PID.TID 0000.0001) // =======================================================
(PID.TID 0000.0001) // Field hFacC at iteration          1
(PID.TID 0000.0001) // CMIN =          1.000000000000000E+00
(PID.TID 0000.0001) // CMAX =          1.000000000000000E+00
(PID.TID 0000.0001) // CINT =          0.000000000000000E+00
(PID.TID 0000.0001) // SYMBOLS (CMIN->CMAX): -abcdefghijklmnopqrstuvwxyz+
(PID.TID 0000.0001) //                  0.0: .
(PID.TID 0000.0001) // RANGE I (Lo:Hi:Step):(  -1:   7:   1)
(PID.TID 0000.0001) // RANGE J (Lo:Hi:Step):(   7:  -1:  -1)
(PID.TID 0000.0001) // RANGE K (Lo:Hi:Step):(   1:   1:   1)
(PID.TID 0000.0001) // =======================================================
(PID.TID 0000.0001) // =======================================================
(PID.TID 0000.0001) // END OF FIELD                                          =
(PID.TID 0000.0001) // =======================================================
(PID.TID 0000.0001) 
(PID.TID 0000.0001) // =======================================================
(PID.TID 0000.0001) // Field hFacW at iteration          1
(PID.TID 0000.0001) // CMIN =          1.000000000000000E+00
(PID.TID 0000.0001) // CMAX =          1.000000000000000E+00
(PID.TID 0000.0001) // CINT =          0.000000000000000E+00
(PID.TID 0000.0001) // SYMBOLS (CMIN->CMAX): -abcdefghijklmnopqrstuvwxyz+
(PID.TID 0000.0001) //                  0.0: .
(PID.TID 0000.0001) // RANGE I (Lo:Hi:Step):(  -1:   7:   1)
(PID.TID 0000.0001) // RANGE J (Lo:Hi:Step):(   7:  -1:  -1)
(PID.TID 0000.0001) // RANGE K (Lo:Hi:Step):(   1:   1:   1)
(PID.TID 0000.0001) // =======================================================
(PID.TID 0000.0001) // =======================================================
(PID.TID 0000.0001) // END OF FIELD                                          =
(PID.TID 0000.0001) // =======================================================
(PID.TID 0000.0001) 
(PID.TID 0000.0001) // =======================================================
(PID.TID 0000.0001) // Field hFacS at iteration          1
(PID.TID 0000.0001) // CMIN =          1.000000000000000E+00
(PID.TID 0000.0001) // CMAX =          1.000000000000000E+00
(PID.TID 0000.0001) // CINT =          0.000000000000000E+00
(PID.TID 0000.0001) // SYMBOLS (CMIN->CMAX): -abcdefghijklmnopqrstuvwxyz+
(PID.TID 0000.0001) //                  0.0: .
(PID.TID 0000.0001) // RANGE I (Lo:Hi:Step):(  -1:   7:   1)
(PID.TID 0000.0001) // RANGE J (Lo:Hi:Step):(   7:  -1:  -1)
(PID.TID 0000.0001) // RANGE K (Lo:Hi:Step):(   1:   1:   1)
(PID.TID 0000.0001) // =======================================================
(PID.TID 0000.0001) // =======================================================
(PID.TID 0000.0001) // END OF FIELD                                          =
(PID.TID 0000.0001) // =======================================================
(PID.TID 0000.0001) 
(PID.TID 0000.0001) // =======================================================
(PID.TID 0000.0001) // Field Initial Temperature at iteration          1
(PID.TID 0000.0001) // CMIN =          4.000000000000000E+00
(PID.TID 0000.0001) // CMAX =          4.000000000000000E+00
(PID.TID 0000.0001) // CINT =          0.000000000000000E+00
(PID.TID 0000.0001) // SYMBOLS (CMIN->CMAX): -abcdefghijklmnopqrstuvwxyz+
(PID.TID 0000.0001) //                  0.0: .
(PID.TID 0000.0001) // RANGE I (Lo:Hi:Step):(   1:   5:   1)
(PID.TID 0000.0001) // RANGE J (Lo:Hi:Step):(   5:   1:  -1)
(PID.TID 0000.0001) // RANGE K (Lo:Hi:Step):(   1:   1:   1)
(PID.TID 0000.0001) // =======================================================
(PID.TID 0000.0001) // =======================================================
(PID.TID 0000.0001) // END OF FIELD                                          =
(PID.TID 0000.0001) // =======================================================
(PID.TID 0000.0001) 
(PID.TID 0000.0001) // =======================================================
(PID.TID 0000.0001) // Field Initial Salinity at iteration          1
(PID.TID 0000.0001) // CMIN =          3.500000000000000E+01
(PID.TID 0000.0001) // CMAX =          3.500000000000000E+01
(PID.TID 0000.0001) // CINT =          0.000000000000000E+00
(PID.TID 0000.0001) // SYMBOLS (CMIN->CMAX): -abcdefghijklmnopqrstuvwxyz+
(PID.TID 0000.0001) //                  0.0: .
(PID.TID 0000.0001) // RANGE I (Lo:Hi:Step):(   1:   5:   1)
(PID.TID 0000.0001) // RANGE J (Lo:Hi:Step):(   5:   1:  -1)
(PID.TID 0000.0001) // RANGE K (Lo:Hi:Step):(   1:   1:   1)
(PID.TID 0000.0001) // =======================================================
(PID.TID 0000.0001) // =======================================================
(PID.TID 0000.0001) // END OF FIELD                                          =
(PID.TID 0000.0001) // =======================================================
(PID.TID 0000.0001) 
(PID.TID 0000.0001) Start initial hydrostatic pressure computation
(PID.TID 0000.0001) Pressure is predetermined for buoyancyRelation OCEANIC
(PID.TID 0000.0001) 
(PID.TID 0000.0001)  MDSREADFIELD: opening global file: windx.sin_y
(PID.TID 0000.0001) // =======================================================
(PID.TID 0000.0001) // Model current state
(PID.TID 0000.0001) // =======================================================
(PID.TID 0000.0001) 
 cg2d: Sum(rhs),rhsMax =   0.00000000000000E+00  0.00000000000000E+00
 cg2d: Sum(rhs),rhsMax =   4.68375338513738E-16  2.62483626325265E-03
 cg2d: Sum(rhs),rhsMax =   3.76434994286967E-16  5.13362633360820E-03
 cg2d: Sum(rhs),rhsMax =   2.51534904016637E-16  7.16168459280808E-03
 cg2d: Sum(rhs),rhsMax =   6.80878964320897E-16  9.29466755986014E-03
 cg2d: Sum(rhs),rhsMax =   9.26342336171615E-16  1.15304356797511E-02
 cg2d: Sum(rhs),rhsMax =   6.98659879949659E-16  1.37809802353870E-02
 cg2d: Sum(rhs),rhsMax =   9.71445146547012E-16  1.60011247469289E-02
 cg2d: Sum(rhs),rhsMax =   5.20417042793042E-16  1.82027337912225E-02
 cg2d: Sum(rhs),rhsMax =   6.93889390390723E-17  2.04493560871551E-02
 cg2d: Sum(rhs),rhsMax =   2.08166817117217E-16  2.25706027739098E-02
 cg2d: Sum(rhs),rhsMax =   6.24500451351651E-16  2.45301657162020E-02
 cg2d: Sum(rhs),rhsMax =   9.15933995315754E-16  2.63097944374927E-02
 cg2d: Sum(rhs),rhsMax =   9.71445146547012E-17  2.79110497217142E-02
 cg2d: Sum(rhs),rhsMax =   1.38777878078145E-17  2.93538602383664E-02
 cg2d: Sum(rhs),rhsMax =   3.33066907387547E-16  3.06720439109423E-02
 cg2d: Sum(rhs),rhsMax =  -4.99600361081320E-16  3.19067816610536E-02
 cg2d: Sum(rhs),rhsMax =  -4.16333634234434E-17  3.30992667639499E-02
 cg2d: Sum(rhs),rhsMax =  -6.31439345255558E-16  3.42837432842201E-02
 cg2d: Sum(rhs),rhsMax =  -1.17961196366423E-16  3.54819650782976E-02
 cg2d: Sum(rhs),rhsMax =  -4.02455846426619E-16  3.66998058458972E-02
 cg2d: Sum(rhs),rhsMax =  -3.53883589099269E-16  3.79264045504640E-02
 cg2d: Sum(rhs),rhsMax =  -1.45716771982052E-16  3.91358858388561E-02
 cg2d: Sum(rhs),rhsMax =  -1.80411241501588E-16  4.02913639261801E-02
 cg2d: Sum(rhs),rhsMax =  -8.18789480661053E-16  4.13506294670109E-02
 cg2d: Sum(rhs),rhsMax =  -2.22044604925031E-16  4.22726606684742E-02
 cg2d: Sum(rhs),rhsMax =  -2.08166817117217E-16  4.30239435265244E-02
 cg2d: Sum(rhs),rhsMax =  -3.88578058618805E-16  4.35835862263463E-02
 cg2d: Sum(rhs),rhsMax =  -2.08166817117217E-16  4.39463978549371E-02
 cg2d: Sum(rhs),rhsMax =   1.38777878078145E-16  4.41234514687522E-02
 cg2d: Sum(rhs),rhsMax =   3.74700270810990E-16  4.41400962296584E-02
 cg2d: Sum(rhs),rhsMax =   5.55111512312578E-16  4.40318241364020E-02
 cg2d: Sum(rhs),rhsMax =   1.66533453693773E-16  4.38387397480459E-02
 cg2d: Sum(rhs),rhsMax =  -4.57966997657877E-16  4.54379564434545E-02
 cg2d: Sum(rhs),rhsMax =  -6.52256026967279E-16  4.77259345831477E-02
 cg2d: Sum(rhs),rhsMax =  -4.16333634234434E-16  4.99949947407192E-02
 cg2d: Sum(rhs),rhsMax =  -1.16573417585641E-15  5.22073351048866E-02
 cg2d: Sum(rhs),rhsMax =  -2.22044604925031E-16  5.43317160002372E-02
 cg2d: Sum(rhs),rhsMax =  -1.24900090270330E-16  5.63476439505484E-02
 cg2d: Sum(rhs),rhsMax =  -1.94289029309402E-16  5.82478252901776E-02
 cg2d: Sum(rhs),rhsMax =   1.66533453693773E-16  6.00385233032928E-02
 cg2d: Sum(rhs),rhsMax =  -3.05311331771918E-16  6.17377934916124E-02
 cg2d: Sum(rhs),rhsMax =   1.66533453693773E-16  6.33719188831750E-02
 cg2d: Sum(rhs),rhsMax =  -5.55111512312578E-17  6.49706567783974E-02
 cg2d: Sum(rhs),rhsMax =  -5.27355936696949E-16  6.65620861371268E-02
 cg2d: Sum(rhs),rhsMax =  -6.93889390390723E-16  6.81678818718649E-02
 cg2d: Sum(rhs),rhsMax =  -1.24900090270330E-15  6.97997402975090E-02
 cg2d: Sum(rhs),rhsMax =  -1.41553435639707E-15  7.14574674476168E-02
 cg2d: Sum(rhs),rhsMax =  -1.58206781009085E-15  7.31289635194147E-02
 cg2d: Sum(rhs),rhsMax =  -1.66533453693773E-15  7.47920407054669E-02
 cg2d: Sum(rhs),rhsMax =  -1.74860126378462E-15  7.64177411555024E-02
 cg2d: Sum(rhs),rhsMax =  -2.16493489801906E-15  7.79746106013342E-02
 cg2d: Sum(rhs),rhsMax =  -1.66533453693773E-15  7.94332555833646E-02
 cg2d: Sum(rhs),rhsMax =  -1.63757896132211E-15  8.07704834293989E-02
 cg2d: Sum(rhs),rhsMax =  -1.52655665885959E-15  8.19723990199665E-02
 cg2d: Sum(rhs),rhsMax =  -1.02695629777827E-15  8.30360026830601E-02
 cg2d: Sum(rhs),rhsMax =  -6.80011602582908E-16  8.39690756684005E-02
 cg2d: Sum(rhs),rhsMax =  -5.13478148889135E-16  8.47884155050402E-02
 cg2d: Sum(rhs),rhsMax =  -1.94289029309402E-16  8.55167463512555E-02
 cg2d: Sum(rhs),rhsMax =  -1.80411241501588E-16  8.61788332411815E-02
 cg2d: Sum(rhs),rhsMax =  -1.38777878078145E-17  8.67974392961796E-02
 cg2d: Sum(rhs),rhsMax =   6.24500451351651E-16  8.73897659407166E-02
 cg2d: Sum(rhs),rhsMax =   8.04911692853238E-16  8.79649137638420E-02
 cg2d: Sum(rhs),rhsMax =   7.63278329429795E-16  8.85227196936137E-02
 cg2d: Sum(rhs),rhsMax =   6.10622663543836E-16  8.90540992000183E-02
 cg2d: Sum(rhs),rhsMax =   3.74700270810990E-16  8.95427877954063E-02
 cg2d: Sum(rhs),rhsMax =   5.68989300120393E-16  8.99681683609922E-02
 cg2d: Sum(rhs),rhsMax =   7.42461647718073E-16  9.03087171850266E-02
 cg2d: Sum(rhs),rhsMax =   8.53483950180589E-16  9.05455210781511E-02
 cg2d: Sum(rhs),rhsMax =   9.36750677027476E-16  9.06653202817038E-02
 cg2d: Sum(rhs),rhsMax =   5.75928194024300E-16  9.06626164589074E-02
 cg2d: Sum(rhs),rhsMax =   6.86950496486816E-16  9.05405397431568E-02
 cg2d: Sum(rhs),rhsMax =   4.05925293378573E-16  9.03103701417029E-02
 cg2d: Sum(rhs),rhsMax =  -1.04083408558608E-17  8.99898242274081E-02
 cg2d: Sum(rhs),rhsMax =   1.26634813746307E-16  8.96004120364414E-02
 cg2d: Sum(rhs),rhsMax =   1.84748050191530E-16  8.91643088347430E-02
 cg2d: Sum(rhs),rhsMax =   1.21430643318376E-17  8.87012494829737E-02
 cg2d: Sum(rhs),rhsMax =  -9.02056207507940E-17  8.82259316756417E-02
 cg2d: Sum(rhs),rhsMax =  -5.89805981832114E-17  8.77463159036157E-02
 cg2d: Sum(rhs),rhsMax =  -1.80411241501588E-16  8.72630547578718E-02
 cg2d: Sum(rhs),rhsMax =  -2.91433543964104E-16  8.67700998922807E-02
 cg2d: Sum(rhs),rhsMax =  -5.48172618408671E-16  8.62563513524465E-02
 cg2d: Sum(rhs),rhsMax =  -3.92047505570758E-16  8.57080582095699E-02
 cg2d: Sum(rhs),rhsMax =  -8.15320033709099E-17  8.51115729176178E-02
 cg2d: Sum(rhs),rhsMax =  -1.23165366794353E-16  8.44560183072814E-02
 cg2d: Sum(rhs),rhsMax =   3.78169717762944E-16  8.37354506308109E-02
 cg2d: Sum(rhs),rhsMax =   5.03069808033274E-17  8.29501901320851E-02
 cg2d: Sum(rhs),rhsMax =  -9.84455572616838E-17  8.21071284256575E-02
 cg2d: Sum(rhs),rhsMax =  -6.76542155630955E-17  8.12189876975221E-02
 cg2d: Sum(rhs),rhsMax =  -2.69749500514394E-16  8.03026735601985E-02
 cg2d: Sum(rhs),rhsMax =  -3.20923843055709E-16  7.93770039758005E-02
 cg2d: Sum(rhs),rhsMax =  -5.96744875736022E-16  7.84601882554019E-02
 cg2d: Sum(rhs),rhsMax =  -5.56846235788555E-16  7.75674589250678E-02
 cg2d: Sum(rhs),rhsMax =  -2.42861286636753E-17  7.67092227067841E-02
 cg2d: Sum(rhs),rhsMax =   3.43475248243408E-16  7.58900036665366E-02
 cg2d: Sum(rhs),rhsMax =   7.07767178198537E-16  7.51083191866450E-02
 cg2d: Sum(rhs),rhsMax =   4.23272528138341E-16  7.43574803023902E-02
 cg2d: Sum(rhs),rhsMax =   4.37150315946155E-16  7.36271655782089E-02
 cg2d: Sum(rhs),rhsMax =   6.31439345255558E-16  7.29055030912946E-02
 cg2d: Sum(rhs),rhsMax =   7.14706072102445E-16  7.21813242235991E-02
 --> objf_test(bi,bj)   = -0.849803597943908E+00
 --> objf_tracer(bi,bj) =  0.000000000000000E+00
 --> objf_atl(bi,bj)    =  0.000000000000000E+00
  local fc = -0.849803597943908E+00
 global fc = -0.849803597943908E+00
 ph-check fcpertplus =  -0.849803598
 ph-check fcpertminus =  -0.849803598
(PID.TID 0000.0001)  MDSREADFIELD: opening global file: walls.bigRidge
(PID.TID 0000.0001) // =======================================================
(PID.TID 0000.0001) // Field Bottom depths (ini_depths) at iteration          1
(PID.TID 0000.0001) // CMIN =         -5.000000000000000E+03
(PID.TID 0000.0001) // CMAX =         -2.000000000000000E+03
(PID.TID 0000.0001) // CINT =          1.111111111111111E+02
(PID.TID 0000.0001) // SYMBOLS (CMIN->CMAX): -abcdefghijklmnopqrstuvwxyz+
(PID.TID 0000.0001) //                  0.0: .
(PID.TID 0000.0001) // RANGE I (Lo:Hi:Step):(  -1:   7:   1)
(PID.TID 0000.0001) // RANGE J (Lo:Hi:Step):(   7:  -1:  -1)
(PID.TID 0000.0001) // RANGE K (Lo:Hi:Step):(   1:   1:   1)
(PID.TID 0000.0001) // =======================================================
(PID.TID 0000.0001) K =   1
(PID.TID 0000.0001) //
(PID.TID 0000.0001) // |--J--|*01234567
(PID.TID 0000.0001) //      7 ----+----
(PID.TID 0000.0001) //      6 .........
(PID.TID 0000.0001) //      5 ----+----
(PID.TID 0000.0001) //      4 ----+----
(PID.TID 0000.0001) //      3 ----+----
(PID.TID 0000.0001) //      2 ----+----
(PID.TID 0000.0001) //      1 .........
(PID.TID 0000.0001) //      0 ----+----
(PID.TID 0000.0001) //     -1 ----+----
(PID.TID 0000.0001) // =======================================================
(PID.TID 0000.0001) // END OF FIELD                                          =
(PID.TID 0000.0001) // =======================================================
(PID.TID 0000.0001) 
(PID.TID 0000.0001) // =======================================================
(PID.TID 0000.0001) // Field Model R_low (ini_masks_etc) at iteration          1
(PID.TID 0000.0001) // CMIN =         -5.000000000000000E+03
(PID.TID 0000.0001) // CMAX =         -2.000000000000000E+03
(PID.TID 0000.0001) // CINT =          1.111111111111111E+02
(PID.TID 0000.0001) // SYMBOLS (CMIN->CMAX): -abcdefghijklmnopqrstuvwxyz+
(PID.TID 0000.0001) //                  0.0: .
(PID.TID 0000.0001) // RANGE I (Lo:Hi:Step):(  -1:   7:   1)
(PID.TID 0000.0001) // RANGE J (Lo:Hi:Step):(   7:  -1:  -1)
(PID.TID 0000.0001) // RANGE K (Lo:Hi:Step):(   1:   1:   1)
(PID.TID 0000.0001) // =======================================================
(PID.TID 0000.0001) K =   1
(PID.TID 0000.0001) //
(PID.TID 0000.0001) // |--J--|*01234567
(PID.TID 0000.0001) //      7 ----+----
(PID.TID 0000.0001) //      6 .........
(PID.TID 0000.0001) //      5 ----+----
(PID.TID 0000.0001) //      4 ----+----
(PID.TID 0000.0001) //      3 ----+----
(PID.TID 0000.0001) //      2 ----+----
(PID.TID 0000.0001) //      1 .........
(PID.TID 0000.0001) //      0 ----+----
(PID.TID 0000.0001) //     -1 ----+----
(PID.TID 0000.0001) // =======================================================
(PID.TID 0000.0001) // END OF FIELD                                          =
(PID.TID 0000.0001) // =======================================================
(PID.TID 0000.0001) 
(PID.TID 0000.0001) // =======================================================
(PID.TID 0000.0001) // Field Model Ro_surf (ini_masks_etc) at iteration          1
(PID.TID 0000.0001) // CMIN =          2.273736754432321E-13
(PID.TID 0000.0001) // CMAX =          2.273736754432321E-13
(PID.TID 0000.0001) // CINT =          0.000000000000000E+00
(PID.TID 0000.0001) // SYMBOLS (CMIN->CMAX): -abcdefghijklmnopqrstuvwxyz+
(PID.TID 0000.0001) //                  0.0: .
(PID.TID 0000.0001) // RANGE I (Lo:Hi:Step):(  -1:   7:   1)
(PID.TID 0000.0001) // RANGE J (Lo:Hi:Step):(   7:  -1:  -1)
(PID.TID 0000.0001) // RANGE K (Lo:Hi:Step):(   1:   1:   1)
(PID.TID 0000.0001) // =======================================================
(PID.TID 0000.0001) // =======================================================
(PID.TID 0000.0001) // END OF FIELD                                          =
(PID.TID 0000.0001) // =======================================================
(PID.TID 0000.0001) 
(PID.TID 0000.0001) // =======================================================
(PID.TID 0000.0001) // Field hFacC at iteration          1
(PID.TID 0000.0001) // CMIN =          1.000000000000000E+00
(PID.TID 0000.0001) // CMAX =          1.000000000000000E+00
(PID.TID 0000.0001) // CINT =          0.000000000000000E+00
(PID.TID 0000.0001) // SYMBOLS (CMIN->CMAX): -abcdefghijklmnopqrstuvwxyz+
(PID.TID 0000.0001) //                  0.0: .
(PID.TID 0000.0001) // RANGE I (Lo:Hi:Step):(  -1:   7:   1)
(PID.TID 0000.0001) // RANGE J (Lo:Hi:Step):(   7:  -1:  -1)
(PID.TID 0000.0001) // RANGE K (Lo:Hi:Step):(   1:   1:   1)
(PID.TID 0000.0001) // =======================================================
(PID.TID 0000.0001) // =======================================================
(PID.TID 0000.0001) // END OF FIELD                                          =
(PID.TID 0000.0001) // =======================================================
(PID.TID 0000.0001) 
(PID.TID 0000.0001) // =======================================================
(PID.TID 0000.0001) // Field hFacW at iteration          1
(PID.TID 0000.0001) // CMIN =          1.000000000000000E+00
(PID.TID 0000.0001) // CMAX =          1.000000000000000E+00
(PID.TID 0000.0001) // CINT =          0.000000000000000E+00
(PID.TID 0000.0001) // SYMBOLS (CMIN->CMAX): -abcdefghijklmnopqrstuvwxyz+
(PID.TID 0000.0001) //                  0.0: .
(PID.TID 0000.0001) // RANGE I (Lo:Hi:Step):(  -1:   7:   1)
(PID.TID 0000.0001) // RANGE J (Lo:Hi:Step):(   7:  -1:  -1)
(PID.TID 0000.0001) // RANGE K (Lo:Hi:Step):(   1:   1:   1)
(PID.TID 0000.0001) // =======================================================
(PID.TID 0000.0001) // =======================================================
(PID.TID 0000.0001) // END OF FIELD                                          =
(PID.TID 0000.0001) // =======================================================
(PID.TID 0000.0001) 
(PID.TID 0000.0001) // =======================================================
(PID.TID 0000.0001) // Field hFacS at iteration          1
(PID.TID 0000.0001) // CMIN =          1.000000000000000E+00
(PID.TID 0000.0001) // CMAX =          1.000000000000000E+00
(PID.TID 0000.0001) // CINT =          0.000000000000000E+00
(PID.TID 0000.0001) // SYMBOLS (CMIN->CMAX): -abcdefghijklmnopqrstuvwxyz+
(PID.TID 0000.0001) //                  0.0: .
(PID.TID 0000.0001) // RANGE I (Lo:Hi:Step):(  -1:   7:   1)
(PID.TID 0000.0001) // RANGE J (Lo:Hi:Step):(   7:  -1:  -1)
(PID.TID 0000.0001) // RANGE K (Lo:Hi:Step):(   1:   1:   1)
(PID.TID 0000.0001) // =======================================================
(PID.TID 0000.0001) // =======================================================
(PID.TID 0000.0001) // END OF FIELD                                          =
(PID.TID 0000.0001) // =======================================================
(PID.TID 0000.0001) 
(PID.TID 0000.0001) %MON surfExpanfCori_max           =  -1.0735540000000E-04
(PID.TID 0000.0001) %MON surfExpanfCori_min           =  -1.1783060000000E-04
(PID.TID 0000.0001) %MON surfExpanfCori_mean          =  -1.1259300000000E-04
(PID.TID 0000.0001) %MON surfExpanfCori_sd            =   3.7035424771427E-06
(PID.TID 0000.0001) %MON surfExpanfCoriG_max          =  -1.0866480000000E-04
(PID.TID 0000.0001) %MON surfExpanfCoriG_min          =  -1.1914000000000E-04
(PID.TID 0000.0001) %MON surfExpanfCoriG_mean         =  -1.1390240000000E-04
(PID.TID 0000.0001) %MON surfExpanfCoriG_sd           =   3.7035424771427E-06
(PID.TID 0000.0001) %MON surfExpanfCoriCos_max        =   0.0000000000000E+00
(PID.TID 0000.0001) %MON surfExpanfCoriCos_min        =   0.0000000000000E+00
(PID.TID 0000.0001) %MON surfExpanfCoriCos_mean       =   0.0000000000000E+00
(PID.TID 0000.0001) %MON surfExpanfCoriCos_sd         =   0.0000000000000E+00
(PID.TID 0000.0001) INI_CG2D: CG2D normalisation factor =  1.9999999999999996E-04
(PID.TID 0000.0001) 
                     ctrl_depth_ini: ctrl update R_low,
                                     adding the control vector.
(PID.TID 0000.0001)  MDSREADFIELD: opening file: xx_depth.0000000000.001.001.data
(PID.TID 0000.0001) // =======================================================
(PID.TID 0000.0001) // Field Model Ro_surf (update_masks_etc) at iteration          1
(PID.TID 0000.0001) // CMIN =          2.273736754432321E-13
(PID.TID 0000.0001) // CMAX =          2.273736754432321E-13
(PID.TID 0000.0001) // CINT =          0.000000000000000E+00
(PID.TID 0000.0001) // SYMBOLS (CMIN->CMAX): -abcdefghijklmnopqrstuvwxyz+
(PID.TID 0000.0001) //                  0.0: .
(PID.TID 0000.0001) // RANGE I (Lo:Hi:Step):(  -1:   7:   1)
(PID.TID 0000.0001) // RANGE J (Lo:Hi:Step):(   7:  -1:  -1)
(PID.TID 0000.0001) // RANGE K (Lo:Hi:Step):(   1:   1:   1)
(PID.TID 0000.0001) // =======================================================
(PID.TID 0000.0001) // =======================================================
(PID.TID 0000.0001) // END OF FIELD                                          =
(PID.TID 0000.0001) // =======================================================
(PID.TID 0000.0001) 
(PID.TID 0000.0001) // =======================================================
(PID.TID 0000.0001) // Field hFacC at iteration          1
(PID.TID 0000.0001) // CMIN =          1.000000000000000E+00
(PID.TID 0000.0001) // CMAX =          1.000000000000000E+00
(PID.TID 0000.0001) // CINT =          0.000000000000000E+00
(PID.TID 0000.0001) // SYMBOLS (CMIN->CMAX): -abcdefghijklmnopqrstuvwxyz+
(PID.TID 0000.0001) //                  0.0: .
(PID.TID 0000.0001) // RANGE I (Lo:Hi:Step):(  -1:   7:   1)
(PID.TID 0000.0001) // RANGE J (Lo:Hi:Step):(   7:  -1:  -1)
(PID.TID 0000.0001) // RANGE K (Lo:Hi:Step):(   1:   1:   1)
(PID.TID 0000.0001) // =======================================================
(PID.TID 0000.0001) // =======================================================
(PID.TID 0000.0001) // END OF FIELD                                          =
(PID.TID 0000.0001) // =======================================================
(PID.TID 0000.0001) 
(PID.TID 0000.0001) // =======================================================
(PID.TID 0000.0001) // Field hFacW at iteration          1
(PID.TID 0000.0001) // CMIN =          1.000000000000000E+00
(PID.TID 0000.0001) // CMAX =          1.000000000000000E+00
(PID.TID 0000.0001) // CINT =          0.000000000000000E+00
(PID.TID 0000.0001) // SYMBOLS (CMIN->CMAX): -abcdefghijklmnopqrstuvwxyz+
(PID.TID 0000.0001) //                  0.0: .
(PID.TID 0000.0001) // RANGE I (Lo:Hi:Step):(  -1:   7:   1)
(PID.TID 0000.0001) // RANGE J (Lo:Hi:Step):(   7:  -1:  -1)
(PID.TID 0000.0001) // RANGE K (Lo:Hi:Step):(   1:   1:   1)
(PID.TID 0000.0001) // =======================================================
(PID.TID 0000.0001) // =======================================================
(PID.TID 0000.0001) // END OF FIELD                                          =
(PID.TID 0000.0001) // =======================================================
(PID.TID 0000.0001) 
(PID.TID 0000.0001) // =======================================================
(PID.TID 0000.0001) // Field hFacS at iteration          1
(PID.TID 0000.0001) // CMIN =          1.000000000000000E+00
(PID.TID 0000.0001) // CMAX =          1.000000000000000E+00
(PID.TID 0000.0001) // CINT =          0.000000000000000E+00
(PID.TID 0000.0001) // SYMBOLS (CMIN->CMAX): -abcdefghijklmnopqrstuvwxyz+
(PID.TID 0000.0001) //                  0.0: .
(PID.TID 0000.0001) // RANGE I (Lo:Hi:Step):(  -1:   7:   1)
(PID.TID 0000.0001) // RANGE J (Lo:Hi:Step):(   7:  -1:  -1)
(PID.TID 0000.0001) // RANGE K (Lo:Hi:Step):(   1:   1:   1)
(PID.TID 0000.0001) // =======================================================
(PID.TID 0000.0001) // =======================================================
(PID.TID 0000.0001) // END OF FIELD                                          =
(PID.TID 0000.0001) // =======================================================
(PID.TID 0000.0001) 
(PID.TID 0000.0001) // =======================================================
(PID.TID 0000.0001) // Field Initial Temperature at iteration          1
(PID.TID 0000.0001) // CMIN =          4.000000000000000E+00
(PID.TID 0000.0001) // CMAX =          4.000000000000000E+00
(PID.TID 0000.0001) // CINT =          0.000000000000000E+00
(PID.TID 0000.0001) // SYMBOLS (CMIN->CMAX): -abcdefghijklmnopqrstuvwxyz+
(PID.TID 0000.0001) //                  0.0: .
(PID.TID 0000.0001) // RANGE I (Lo:Hi:Step):(   1:   5:   1)
(PID.TID 0000.0001) // RANGE J (Lo:Hi:Step):(   5:   1:  -1)
(PID.TID 0000.0001) // RANGE K (Lo:Hi:Step):(   1:   1:   1)
(PID.TID 0000.0001) // =======================================================
(PID.TID 0000.0001) // =======================================================
(PID.TID 0000.0001) // END OF FIELD                                          =
(PID.TID 0000.0001) // =======================================================
(PID.TID 0000.0001) 
(PID.TID 0000.0001) // =======================================================
(PID.TID 0000.0001) // Field Initial Salinity at iteration          1
(PID.TID 0000.0001) // CMIN =          3.500000000000000E+01
(PID.TID 0000.0001) // CMAX =          3.500000000000000E+01
(PID.TID 0000.0001) // CINT =          0.000000000000000E+00
(PID.TID 0000.0001) // SYMBOLS (CMIN->CMAX): -abcdefghijklmnopqrstuvwxyz+
(PID.TID 0000.0001) //                  0.0: .
(PID.TID 0000.0001) // RANGE I (Lo:Hi:Step):(   1:   5:   1)
(PID.TID 0000.0001) // RANGE J (Lo:Hi:Step):(   5:   1:  -1)
(PID.TID 0000.0001) // RANGE K (Lo:Hi:Step):(   1:   1:   1)
(PID.TID 0000.0001) // =======================================================
(PID.TID 0000.0001) // =======================================================
(PID.TID 0000.0001) // END OF FIELD                                          =
(PID.TID 0000.0001) // =======================================================
(PID.TID 0000.0001) 
(PID.TID 0000.0001) Start initial hydrostatic pressure computation
(PID.TID 0000.0001) Pressure is predetermined for buoyancyRelation OCEANIC
(PID.TID 0000.0001) 
(PID.TID 0000.0001)  MDSREADFIELD: opening global file: windx.sin_y
(PID.TID 0000.0001) // =======================================================
(PID.TID 0000.0001) // Model current state
(PID.TID 0000.0001) // =======================================================
(PID.TID 0000.0001) 
 cg2d: Sum(rhs),rhsMax =   0.00000000000000E+00  0.00000000000000E+00
 cg2d: Sum(rhs),rhsMax =   4.68375338513738E-16  2.62483626325265E-03
 cg2d: Sum(rhs),rhsMax =   3.76434994286967E-16  5.13362633360820E-03
 cg2d: Sum(rhs),rhsMax =   2.51534904016637E-16  7.16168459280808E-03
 cg2d: Sum(rhs),rhsMax =   6.80878964320897E-16  9.29466755986014E-03
 cg2d: Sum(rhs),rhsMax =   9.26342336171615E-16  1.15304356797511E-02
 cg2d: Sum(rhs),rhsMax =   6.98659879949659E-16  1.37809802353870E-02
 cg2d: Sum(rhs),rhsMax =   9.71445146547012E-16  1.60011247469289E-02
 cg2d: Sum(rhs),rhsMax =   5.20417042793042E-16  1.82027337912225E-02
 cg2d: Sum(rhs),rhsMax =   6.93889390390723E-17  2.04493560871551E-02
 cg2d: Sum(rhs),rhsMax =   2.08166817117217E-16  2.25706027739098E-02
 cg2d: Sum(rhs),rhsMax =   6.24500451351651E-16  2.45301657162020E-02
 cg2d: Sum(rhs),rhsMax =   9.15933995315754E-16  2.63097944374927E-02
 cg2d: Sum(rhs),rhsMax =   9.71445146547012E-17  2.79110497217142E-02
 cg2d: Sum(rhs),rhsMax =   1.38777878078145E-17  2.93538602383664E-02
 cg2d: Sum(rhs),rhsMax =   3.33066907387547E-16  3.06720439109423E-02
 cg2d: Sum(rhs),rhsMax =  -4.99600361081320E-16  3.19067816610536E-02
 cg2d: Sum(rhs),rhsMax =  -4.16333634234434E-17  3.30992667639499E-02
 cg2d: Sum(rhs),rhsMax =  -6.31439345255558E-16  3.42837432842201E-02
 cg2d: Sum(rhs),rhsMax =  -1.17961196366423E-16  3.54819650782976E-02
 cg2d: Sum(rhs),rhsMax =  -4.02455846426619E-16  3.66998058458972E-02
 cg2d: Sum(rhs),rhsMax =  -3.53883589099269E-16  3.79264045504640E-02
 cg2d: Sum(rhs),rhsMax =  -1.45716771982052E-16  3.91358858388561E-02
 cg2d: Sum(rhs),rhsMax =  -1.80411241501588E-16  4.02913639261801E-02
 cg2d: Sum(rhs),rhsMax =  -8.18789480661053E-16  4.13506294670109E-02
 cg2d: Sum(rhs),rhsMax =  -2.22044604925031E-16  4.22726606684742E-02
 cg2d: Sum(rhs),rhsMax =  -2.08166817117217E-16  4.30239435265244E-02
 cg2d: Sum(rhs),rhsMax =  -3.88578058618805E-16  4.35835862263463E-02
 cg2d: Sum(rhs),rhsMax =  -2.08166817117217E-16  4.39463978549371E-02
 cg2d: Sum(rhs),rhsMax =   1.38777878078145E-16  4.41234514687522E-02
 cg2d: Sum(rhs),rhsMax =   3.74700270810990E-16  4.41400962296584E-02
 cg2d: Sum(rhs),rhsMax =   5.55111512312578E-16  4.40318241364020E-02
 cg2d: Sum(rhs),rhsMax =   1.66533453693773E-16  4.38387397480459E-02
 cg2d: Sum(rhs),rhsMax =  -4.57966997657877E-16  4.54379564434545E-02
 cg2d: Sum(rhs),rhsMax =  -6.52256026967279E-16  4.77259345831477E-02
 cg2d: Sum(rhs),rhsMax =  -4.16333634234434E-16  4.99949947407192E-02
 cg2d: Sum(rhs),rhsMax =  -1.16573417585641E-15  5.22073351048866E-02
 cg2d: Sum(rhs),rhsMax =  -2.22044604925031E-16  5.43317160002372E-02
 cg2d: Sum(rhs),rhsMax =  -1.24900090270330E-16  5.63476439505484E-02
 cg2d: Sum(rhs),rhsMax =  -1.94289029309402E-16  5.82478252901776E-02
 cg2d: Sum(rhs),rhsMax =   1.66533453693773E-16  6.00385233032928E-02
 cg2d: Sum(rhs),rhsMax =  -3.05311331771918E-16  6.17377934916124E-02
 cg2d: Sum(rhs),rhsMax =   1.66533453693773E-16  6.33719188831750E-02
 cg2d: Sum(rhs),rhsMax =  -5.55111512312578E-17  6.49706567783974E-02
 cg2d: Sum(rhs),rhsMax =  -5.27355936696949E-16  6.65620861371268E-02
 cg2d: Sum(rhs),rhsMax =  -6.93889390390723E-16  6.81678818718649E-02
 cg2d: Sum(rhs),rhsMax =  -1.24900090270330E-15  6.97997402975090E-02
 cg2d: Sum(rhs),rhsMax =  -1.41553435639707E-15  7.14574674476168E-02
 cg2d: Sum(rhs),rhsMax =  -1.58206781009085E-15  7.31289635194147E-02
 cg2d: Sum(rhs),rhsMax =  -1.66533453693773E-15  7.47920407054669E-02
 cg2d: Sum(rhs),rhsMax =  -1.74860126378462E-15  7.64177411555024E-02
 cg2d: Sum(rhs),rhsMax =  -2.16493489801906E-15  7.79746106013342E-02
 cg2d: Sum(rhs),rhsMax =  -1.66533453693773E-15  7.94332555833646E-02
 cg2d: Sum(rhs),rhsMax =  -1.63757896132211E-15  8.07704834293989E-02
 cg2d: Sum(rhs),rhsMax =  -1.52655665885959E-15  8.19723990199665E-02
 cg2d: Sum(rhs),rhsMax =  -1.02695629777827E-15  8.30360026830601E-02
 cg2d: Sum(rhs),rhsMax =  -6.80011602582908E-16  8.39690756684005E-02
 cg2d: Sum(rhs),rhsMax =  -5.13478148889135E-16  8.47884155050402E-02
 cg2d: Sum(rhs),rhsMax =  -1.94289029309402E-16  8.55167463512555E-02
 cg2d: Sum(rhs),rhsMax =  -1.80411241501588E-16  8.61788332411815E-02
 cg2d: Sum(rhs),rhsMax =  -1.38777878078145E-17  8.67974392961796E-02
 cg2d: Sum(rhs),rhsMax =   6.24500451351651E-16  8.73897659407166E-02
 cg2d: Sum(rhs),rhsMax =   8.04911692853238E-16  8.79649137638420E-02
 cg2d: Sum(rhs),rhsMax =   7.63278329429795E-16  8.85227196936137E-02
 cg2d: Sum(rhs),rhsMax =   6.10622663543836E-16  8.90540992000183E-02
 cg2d: Sum(rhs),rhsMax =   3.74700270810990E-16  8.95427877954063E-02
 cg2d: Sum(rhs),rhsMax =   5.68989300120393E-16  8.99681683609922E-02
 cg2d: Sum(rhs),rhsMax =   7.42461647718073E-16  9.03087171850266E-02
 cg2d: Sum(rhs),rhsMax =   8.53483950180589E-16  9.05455210781511E-02
 cg2d: Sum(rhs),rhsMax =   9.36750677027476E-16  9.06653202817038E-02
 cg2d: Sum(rhs),rhsMax =   5.75928194024300E-16  9.06626164589074E-02
 cg2d: Sum(rhs),rhsMax =   6.86950496486816E-16  9.05405397431568E-02
 cg2d: Sum(rhs),rhsMax =   4.05925293378573E-16  9.03103701417029E-02
 cg2d: Sum(rhs),rhsMax =  -1.04083408558608E-17  8.99898242274081E-02
 cg2d: Sum(rhs),rhsMax =   1.26634813746307E-16  8.96004120364414E-02
 cg2d: Sum(rhs),rhsMax =   1.84748050191530E-16  8.91643088347430E-02
 cg2d: Sum(rhs),rhsMax =   1.21430643318376E-17  8.87012494829737E-02
 cg2d: Sum(rhs),rhsMax =  -9.02056207507940E-17  8.82259316756417E-02
 cg2d: Sum(rhs),rhsMax =  -5.89805981832114E-17  8.77463159036157E-02
 cg2d: Sum(rhs),rhsMax =  -1.80411241501588E-16  8.72630547578718E-02
 cg2d: Sum(rhs),rhsMax =  -2.91433543964104E-16  8.67700998922807E-02
 cg2d: Sum(rhs),rhsMax =  -5.48172618408671E-16  8.62563513524465E-02
 cg2d: Sum(rhs),rhsMax =  -3.92047505570758E-16  8.57080582095699E-02
 cg2d: Sum(rhs),rhsMax =  -8.15320033709099E-17  8.51115729176178E-02
 cg2d: Sum(rhs),rhsMax =  -1.23165366794353E-16  8.44560183072814E-02
 cg2d: Sum(rhs),rhsMax =   3.78169717762944E-16  8.37354506308109E-02
 cg2d: Sum(rhs),rhsMax =   5.03069808033274E-17  8.29501901320851E-02
 cg2d: Sum(rhs),rhsMax =  -9.84455572616838E-17  8.21071284256575E-02
 cg2d: Sum(rhs),rhsMax =  -6.76542155630955E-17  8.12189876975221E-02
 cg2d: Sum(rhs),rhsMax =  -2.69749500514394E-16  8.03026735601985E-02
 cg2d: Sum(rhs),rhsMax =  -3.20923843055709E-16  7.93770039758005E-02
 cg2d: Sum(rhs),rhsMax =  -5.96744875736022E-16  7.84601882554019E-02
 cg2d: Sum(rhs),rhsMax =  -5.56846235788555E-16  7.75674589250678E-02
 cg2d: Sum(rhs),rhsMax =  -2.42861286636753E-17  7.67092227067841E-02
 cg2d: Sum(rhs),rhsMax =   3.43475248243408E-16  7.58900036665366E-02
 cg2d: Sum(rhs),rhsMax =   7.07767178198537E-16  7.51083191866450E-02
 cg2d: Sum(rhs),rhsMax =   4.23272528138341E-16  7.43574803023902E-02
 cg2d: Sum(rhs),rhsMax =   4.37150315946155E-16  7.36271655782089E-02
 cg2d: Sum(rhs),rhsMax =   6.31439345255558E-16  7.29055030912946E-02
 cg2d: Sum(rhs),rhsMax =   7.14706072102445E-16  7.21813242235991E-02
 --> objf_test(bi,bj)   = -0.849803597943908E+00
 --> objf_tracer(bi,bj) =  0.000000000000000E+00
 --> objf_atl(bi,bj)    =  0.000000000000000E+00
  local fc = -0.849803597943908E+00
 global fc = -0.849803597943908E+00
 ph-grd  ierr ---------------------------
 ph-grd  ierr =  -3, icomp =  21, ichknum =  21
(PID.TID 0000.0001)  MDSREADFIELD: opening global file: walls.bigRidge
(PID.TID 0000.0001) // =======================================================
(PID.TID 0000.0001) // Field Bottom depths (ini_depths) at iteration          1
(PID.TID 0000.0001) // CMIN =         -5.000000000000000E+03
(PID.TID 0000.0001) // CMAX =         -2.000000000000000E+03
(PID.TID 0000.0001) // CINT =          1.111111111111111E+02
(PID.TID 0000.0001) // SYMBOLS (CMIN->CMAX): -abcdefghijklmnopqrstuvwxyz+
(PID.TID 0000.0001) //                  0.0: .
(PID.TID 0000.0001) // RANGE I (Lo:Hi:Step):(  -1:   7:   1)
(PID.TID 0000.0001) // RANGE J (Lo:Hi:Step):(   7:  -1:  -1)
(PID.TID 0000.0001) // RANGE K (Lo:Hi:Step):(   1:   1:   1)
(PID.TID 0000.0001) // =======================================================
(PID.TID 0000.0001) K =   1
(PID.TID 0000.0001) //
(PID.TID 0000.0001) // |--J--|*01234567
(PID.TID 0000.0001) //      7 ----+----
(PID.TID 0000.0001) //      6 .........
(PID.TID 0000.0001) //      5 ----+----
(PID.TID 0000.0001) //      4 ----+----
(PID.TID 0000.0001) //      3 ----+----
(PID.TID 0000.0001) //      2 ----+----
(PID.TID 0000.0001) //      1 .........
(PID.TID 0000.0001) //      0 ----+----
(PID.TID 0000.0001) //     -1 ----+----
(PID.TID 0000.0001) // =======================================================
(PID.TID 0000.0001) // END OF FIELD                                          =
(PID.TID 0000.0001) // =======================================================
(PID.TID 0000.0001) 
(PID.TID 0000.0001) // =======================================================
(PID.TID 0000.0001) // Field Model R_low (ini_masks_etc) at iteration          1
(PID.TID 0000.0001) // CMIN =         -5.000000000000000E+03
(PID.TID 0000.0001) // CMAX =         -2.000000000000000E+03
(PID.TID 0000.0001) // CINT =          1.111111111111111E+02
(PID.TID 0000.0001) // SYMBOLS (CMIN->CMAX): -abcdefghijklmnopqrstuvwxyz+
(PID.TID 0000.0001) //                  0.0: .
(PID.TID 0000.0001) // RANGE I (Lo:Hi:Step):(  -1:   7:   1)
(PID.TID 0000.0001) // RANGE J (Lo:Hi:Step):(   7:  -1:  -1)
(PID.TID 0000.0001) // RANGE K (Lo:Hi:Step):(   1:   1:   1)
(PID.TID 0000.0001) // =======================================================
(PID.TID 0000.0001) K =   1
(PID.TID 0000.0001) //
(PID.TID 0000.0001) // |--J--|*01234567
(PID.TID 0000.0001) //      7 ----+----
(PID.TID 0000.0001) //      6 .........
(PID.TID 0000.0001) //      5 ----+----
(PID.TID 0000.0001) //      4 ----+----
(PID.TID 0000.0001) //      3 ----+----
(PID.TID 0000.0001) //      2 ----+----
(PID.TID 0000.0001) //      1 .........
(PID.TID 0000.0001) //      0 ----+----
(PID.TID 0000.0001) //     -1 ----+----
(PID.TID 0000.0001) // =======================================================
(PID.TID 0000.0001) // END OF FIELD                                          =
(PID.TID 0000.0001) // =======================================================
(PID.TID 0000.0001) 
(PID.TID 0000.0001) // =======================================================
(PID.TID 0000.0001) // Field Model Ro_surf (ini_masks_etc) at iteration          1
(PID.TID 0000.0001) // CMIN =          2.273736754432321E-13
(PID.TID 0000.0001) // CMAX =          2.273736754432321E-13
(PID.TID 0000.0001) // CINT =          0.000000000000000E+00
(PID.TID 0000.0001) // SYMBOLS (CMIN->CMAX): -abcdefghijklmnopqrstuvwxyz+
(PID.TID 0000.0001) //                  0.0: .
(PID.TID 0000.0001) // RANGE I (Lo:Hi:Step):(  -1:   7:   1)
(PID.TID 0000.0001) // RANGE J (Lo:Hi:Step):(   7:  -1:  -1)
(PID.TID 0000.0001) // RANGE K (Lo:Hi:Step):(   1:   1:   1)
(PID.TID 0000.0001) // =======================================================
(PID.TID 0000.0001) // =======================================================
(PID.TID 0000.0001) // END OF FIELD                                          =
(PID.TID 0000.0001) // =======================================================
(PID.TID 0000.0001) 
(PID.TID 0000.0001) // =======================================================
(PID.TID 0000.0001) // Field hFacC at iteration          1
(PID.TID 0000.0001) // CMIN =          1.000000000000000E+00
(PID.TID 0000.0001) // CMAX =          1.000000000000000E+00
(PID.TID 0000.0001) // CINT =          0.000000000000000E+00
(PID.TID 0000.0001) // SYMBOLS (CMIN->CMAX): -abcdefghijklmnopqrstuvwxyz+
(PID.TID 0000.0001) //                  0.0: .
(PID.TID 0000.0001) // RANGE I (Lo:Hi:Step):(  -1:   7:   1)
(PID.TID 0000.0001) // RANGE J (Lo:Hi:Step):(   7:  -1:  -1)
(PID.TID 0000.0001) // RANGE K (Lo:Hi:Step):(   1:   1:   1)
(PID.TID 0000.0001) // =======================================================
(PID.TID 0000.0001) // =======================================================
(PID.TID 0000.0001) // END OF FIELD                                          =
(PID.TID 0000.0001) // =======================================================
(PID.TID 0000.0001) 
(PID.TID 0000.0001) // =======================================================
(PID.TID 0000.0001) // Field hFacW at iteration          1
(PID.TID 0000.0001) // CMIN =          1.000000000000000E+00
(PID.TID 0000.0001) // CMAX =          1.000000000000000E+00
(PID.TID 0000.0001) // CINT =          0.000000000000000E+00
(PID.TID 0000.0001) // SYMBOLS (CMIN->CMAX): -abcdefghijklmnopqrstuvwxyz+
(PID.TID 0000.0001) //                  0.0: .
(PID.TID 0000.0001) // RANGE I (Lo:Hi:Step):(  -1:   7:   1)
(PID.TID 0000.0001) // RANGE J (Lo:Hi:Step):(   7:  -1:  -1)
(PID.TID 0000.0001) // RANGE K (Lo:Hi:Step):(   1:   1:   1)
(PID.TID 0000.0001) // =======================================================
(PID.TID 0000.0001) // =======================================================
(PID.TID 0000.0001) // END OF FIELD                                          =
(PID.TID 0000.0001) // =======================================================
(PID.TID 0000.0001) 
(PID.TID 0000.0001) // =======================================================
(PID.TID 0000.0001) // Field hFacS at iteration          1
(PID.TID 0000.0001) // CMIN =          1.000000000000000E+00
(PID.TID 0000.0001) // CMAX =          1.000000000000000E+00
(PID.TID 0000.0001) // CINT =          0.000000000000000E+00
(PID.TID 0000.0001) // SYMBOLS (CMIN->CMAX): -abcdefghijklmnopqrstuvwxyz+
(PID.TID 0000.0001) //                  0.0: .
(PID.TID 0000.0001) // RANGE I (Lo:Hi:Step):(  -1:   7:   1)
(PID.TID 0000.0001) // RANGE J (Lo:Hi:Step):(   7:  -1:  -1)
(PID.TID 0000.0001) // RANGE K (Lo:Hi:Step):(   1:   1:   1)
(PID.TID 0000.0001) // =======================================================
(PID.TID 0000.0001) // =======================================================
(PID.TID 0000.0001) // END OF FIELD                                          =
(PID.TID 0000.0001) // =======================================================
(PID.TID 0000.0001) 
(PID.TID 0000.0001) %MON surfExpanfCori_max           =  -1.0735540000000E-04
(PID.TID 0000.0001) %MON surfExpanfCori_min           =  -1.1783060000000E-04
(PID.TID 0000.0001) %MON surfExpanfCori_mean          =  -1.1259300000000E-04
(PID.TID 0000.0001) %MON surfExpanfCori_sd            =   3.7035424771427E-06
(PID.TID 0000.0001) %MON surfExpanfCoriG_max          =  -1.0866480000000E-04
(PID.TID 0000.0001) %MON surfExpanfCoriG_min          =  -1.1914000000000E-04
(PID.TID 0000.0001) %MON surfExpanfCoriG_mean         =  -1.1390240000000E-04
(PID.TID 0000.0001) %MON surfExpanfCoriG_sd           =   3.7035424771427E-06
(PID.TID 0000.0001) %MON surfExpanfCoriCos_max        =   0.0000000000000E+00
(PID.TID 0000.0001) %MON surfExpanfCoriCos_min        =   0.0000000000000E+00
(PID.TID 0000.0001) %MON surfExpanfCoriCos_mean       =   0.0000000000000E+00
(PID.TID 0000.0001) %MON surfExpanfCoriCos_sd         =   0.0000000000000E+00
(PID.TID 0000.0001) INI_CG2D: CG2D normalisation factor =  1.9999999999999996E-04
(PID.TID 0000.0001) 
                     ctrl_depth_ini: ctrl update R_low,
                                     adding the control vector.
(PID.TID 0000.0001)  MDSREADFIELD: opening file: xx_depth.0000000000.001.001.data
(PID.TID 0000.0001) // =======================================================
(PID.TID 0000.0001) // Field Model Ro_surf (update_masks_etc) at iteration          1
(PID.TID 0000.0001) // CMIN =          2.273736754432321E-13
(PID.TID 0000.0001) // CMAX =          2.273736754432321E-13
(PID.TID 0000.0001) // CINT =          0.000000000000000E+00
(PID.TID 0000.0001) // SYMBOLS (CMIN->CMAX): -abcdefghijklmnopqrstuvwxyz+
(PID.TID 0000.0001) //                  0.0: .
(PID.TID 0000.0001) // RANGE I (Lo:Hi:Step):(  -1:   7:   1)
(PID.TID 0000.0001) // RANGE J (Lo:Hi:Step):(   7:  -1:  -1)
(PID.TID 0000.0001) // RANGE K (Lo:Hi:Step):(   1:   1:   1)
(PID.TID 0000.0001) // =======================================================
(PID.TID 0000.0001) // =======================================================
(PID.TID 0000.0001) // END OF FIELD                                          =
(PID.TID 0000.0001) // =======================================================
(PID.TID 0000.0001) 
(PID.TID 0000.0001) // =======================================================
(PID.TID 0000.0001) // Field hFacC at iteration          1
(PID.TID 0000.0001) // CMIN =          1.000000000000000E+00
(PID.TID 0000.0001) // CMAX =          1.000000000000000E+00
(PID.TID 0000.0001) // CINT =          0.000000000000000E+00
(PID.TID 0000.0001) // SYMBOLS (CMIN->CMAX): -abcdefghijklmnopqrstuvwxyz+
(PID.TID 0000.0001) //                  0.0: .
(PID.TID 0000.0001) // RANGE I (Lo:Hi:Step):(  -1:   7:   1)
(PID.TID 0000.0001) // RANGE J (Lo:Hi:Step):(   7:  -1:  -1)
(PID.TID 0000.0001) // RANGE K (Lo:Hi:Step):(   1:   1:   1)
(PID.TID 0000.0001) // =======================================================
(PID.TID 0000.0001) // =======================================================
(PID.TID 0000.0001) // END OF FIELD                                          =
(PID.TID 0000.0001) // =======================================================
(PID.TID 0000.0001) 
(PID.TID 0000.0001) // =======================================================
(PID.TID 0000.0001) // Field hFacW at iteration          1
(PID.TID 0000.0001) // CMIN =          1.000000000000000E+00
(PID.TID 0000.0001) // CMAX =          1.000000000000000E+00
(PID.TID 0000.0001) // CINT =          0.000000000000000E+00
(PID.TID 0000.0001) // SYMBOLS (CMIN->CMAX): -abcdefghijklmnopqrstuvwxyz+
(PID.TID 0000.0001) //                  0.0: .
(PID.TID 0000.0001) // RANGE I (Lo:Hi:Step):(  -1:   7:   1)
(PID.TID 0000.0001) // RANGE J (Lo:Hi:Step):(   7:  -1:  -1)
(PID.TID 0000.0001) // RANGE K (Lo:Hi:Step):(   1:   1:   1)
(PID.TID 0000.0001) // =======================================================
(PID.TID 0000.0001) // =======================================================
(PID.TID 0000.0001) // END OF FIELD                                          =
(PID.TID 0000.0001) // =======================================================
(PID.TID 0000.0001) 
(PID.TID 0000.0001) // =======================================================
(PID.TID 0000.0001) // Field hFacS at iteration          1
(PID.TID 0000.0001) // CMIN =          1.000000000000000E+00
(PID.TID 0000.0001) // CMAX =          1.000000000000000E+00
(PID.TID 0000.0001) // CINT =          0.000000000000000E+00
(PID.TID 0000.0001) // SYMBOLS (CMIN->CMAX): -abcdefghijklmnopqrstuvwxyz+
(PID.TID 0000.0001) //                  0.0: .
(PID.TID 0000.0001) // RANGE I (Lo:Hi:Step):(  -1:   7:   1)
(PID.TID 0000.0001) // RANGE J (Lo:Hi:Step):(   7:  -1:  -1)
(PID.TID 0000.0001) // RANGE K (Lo:Hi:Step):(   1:   1:   1)
(PID.TID 0000.0001) // =======================================================
(PID.TID 0000.0001) // =======================================================
(PID.TID 0000.0001) // END OF FIELD                                          =
(PID.TID 0000.0001) // =======================================================
(PID.TID 0000.0001) 
(PID.TID 0000.0001) // =======================================================
(PID.TID 0000.0001) // Field Initial Temperature at iteration          1
(PID.TID 0000.0001) // CMIN =          4.000000000000000E+00
(PID.TID 0000.0001) // CMAX =          4.000000000000000E+00
(PID.TID 0000.0001) // CINT =          0.000000000000000E+00
(PID.TID 0000.0001) // SYMBOLS (CMIN->CMAX): -abcdefghijklmnopqrstuvwxyz+
(PID.TID 0000.0001) //                  0.0: .
(PID.TID 0000.0001) // RANGE I (Lo:Hi:Step):(   1:   5:   1)
(PID.TID 0000.0001) // RANGE J (Lo:Hi:Step):(   5:   1:  -1)
(PID.TID 0000.0001) // RANGE K (Lo:Hi:Step):(   1:   1:   1)
(PID.TID 0000.0001) // =======================================================
(PID.TID 0000.0001) // =======================================================
(PID.TID 0000.0001) // END OF FIELD                                          =
(PID.TID 0000.0001) // =======================================================
(PID.TID 0000.0001) 
(PID.TID 0000.0001) // =======================================================
(PID.TID 0000.0001) // Field Initial Salinity at iteration          1
(PID.TID 0000.0001) // CMIN =          3.500000000000000E+01
(PID.TID 0000.0001) // CMAX =          3.500000000000000E+01
(PID.TID 0000.0001) // CINT =          0.000000000000000E+00
(PID.TID 0000.0001) // SYMBOLS (CMIN->CMAX): -abcdefghijklmnopqrstuvwxyz+
(PID.TID 0000.0001) //                  0.0: .
(PID.TID 0000.0001) // RANGE I (Lo:Hi:Step):(   1:   5:   1)
(PID.TID 0000.0001) // RANGE J (Lo:Hi:Step):(   5:   1:  -1)
(PID.TID 0000.0001) // RANGE K (Lo:Hi:Step):(   1:   1:   1)
(PID.TID 0000.0001) // =======================================================
(PID.TID 0000.0001) // =======================================================
(PID.TID 0000.0001) // END OF FIELD                                          =
(PID.TID 0000.0001) // =======================================================
(PID.TID 0000.0001) 
(PID.TID 0000.0001) Start initial hydrostatic pressure computation
(PID.TID 0000.0001) Pressure is predetermined for buoyancyRelation OCEANIC
(PID.TID 0000.0001) 
(PID.TID 0000.0001)  MDSREADFIELD: opening global file: windx.sin_y
(PID.TID 0000.0001) // =======================================================
(PID.TID 0000.0001) // Model current state
(PID.TID 0000.0001) // =======================================================
(PID.TID 0000.0001) 
 cg2d: Sum(rhs),rhsMax =   0.00000000000000E+00  0.00000000000000E+00
 cg2d: Sum(rhs),rhsMax =   4.68375338513738E-16  2.62483626325265E-03
 cg2d: Sum(rhs),rhsMax =   3.76434994286967E-16  5.13362633360820E-03
 cg2d: Sum(rhs),rhsMax =   2.51534904016637E-16  7.16168459280808E-03
 cg2d: Sum(rhs),rhsMax =   6.80878964320897E-16  9.29466755986014E-03
 cg2d: Sum(rhs),rhsMax =   9.26342336171615E-16  1.15304356797511E-02
 cg2d: Sum(rhs),rhsMax =   6.98659879949659E-16  1.37809802353870E-02
 cg2d: Sum(rhs),rhsMax =   9.71445146547012E-16  1.60011247469289E-02
 cg2d: Sum(rhs),rhsMax =   5.20417042793042E-16  1.82027337912225E-02
 cg2d: Sum(rhs),rhsMax =   6.93889390390723E-17  2.04493560871551E-02
 cg2d: Sum(rhs),rhsMax =   2.08166817117217E-16  2.25706027739098E-02
 cg2d: Sum(rhs),rhsMax =   6.24500451351651E-16  2.45301657162020E-02
 cg2d: Sum(rhs),rhsMax =   9.15933995315754E-16  2.63097944374927E-02
 cg2d: Sum(rhs),rhsMax =   9.71445146547012E-17  2.79110497217142E-02
 cg2d: Sum(rhs),rhsMax =   1.38777878078145E-17  2.93538602383664E-02
 cg2d: Sum(rhs),rhsMax =   3.33066907387547E-16  3.06720439109423E-02
 cg2d: Sum(rhs),rhsMax =  -4.99600361081320E-16  3.19067816610536E-02
 cg2d: Sum(rhs),rhsMax =  -4.16333634234434E-17  3.30992667639499E-02
 cg2d: Sum(rhs),rhsMax =  -6.31439345255558E-16  3.42837432842201E-02
 cg2d: Sum(rhs),rhsMax =  -1.17961196366423E-16  3.54819650782976E-02
 cg2d: Sum(rhs),rhsMax =  -4.02455846426619E-16  3.66998058458972E-02
 cg2d: Sum(rhs),rhsMax =  -3.53883589099269E-16  3.79264045504640E-02
 cg2d: Sum(rhs),rhsMax =  -1.45716771982052E-16  3.91358858388561E-02
 cg2d: Sum(rhs),rhsMax =  -1.80411241501588E-16  4.02913639261801E-02
 cg2d: Sum(rhs),rhsMax =  -8.18789480661053E-16  4.13506294670109E-02
 cg2d: Sum(rhs),rhsMax =  -2.22044604925031E-16  4.22726606684742E-02
 cg2d: Sum(rhs),rhsMax =  -2.08166817117217E-16  4.30239435265244E-02
 cg2d: Sum(rhs),rhsMax =  -3.88578058618805E-16  4.35835862263463E-02
 cg2d: Sum(rhs),rhsMax =  -2.08166817117217E-16  4.39463978549371E-02
 cg2d: Sum(rhs),rhsMax =   1.38777878078145E-16  4.41234514687522E-02
 cg2d: Sum(rhs),rhsMax =   3.74700270810990E-16  4.41400962296584E-02
 cg2d: Sum(rhs),rhsMax =   5.55111512312578E-16  4.40318241364020E-02
 cg2d: Sum(rhs),rhsMax =   1.66533453693773E-16  4.38387397480459E-02
 cg2d: Sum(rhs),rhsMax =  -4.57966997657877E-16  4.54379564434545E-02
 cg2d: Sum(rhs),rhsMax =  -6.52256026967279E-16  4.77259345831477E-02
 cg2d: Sum(rhs),rhsMax =  -4.16333634234434E-16  4.99949947407192E-02
 cg2d: Sum(rhs),rhsMax =  -1.16573417585641E-15  5.22073351048866E-02
 cg2d: Sum(rhs),rhsMax =  -2.22044604925031E-16  5.43317160002372E-02
 cg2d: Sum(rhs),rhsMax =  -1.24900090270330E-16  5.63476439505484E-02
 cg2d: Sum(rhs),rhsMax =  -1.94289029309402E-16  5.82478252901776E-02
 cg2d: Sum(rhs),rhsMax =   1.66533453693773E-16  6.00385233032928E-02
 cg2d: Sum(rhs),rhsMax =  -3.05311331771918E-16  6.17377934916124E-02
 cg2d: Sum(rhs),rhsMax =   1.66533453693773E-16  6.33719188831750E-02
 cg2d: Sum(rhs),rhsMax =  -5.55111512312578E-17  6.49706567783974E-02
 cg2d: Sum(rhs),rhsMax =  -5.27355936696949E-16  6.65620861371268E-02
 cg2d: Sum(rhs),rhsMax =  -6.93889390390723E-16  6.81678818718649E-02
 cg2d: Sum(rhs),rhsMax =  -1.24900090270330E-15  6.97997402975090E-02
 cg2d: Sum(rhs),rhsMax =  -1.41553435639707E-15  7.14574674476168E-02
 cg2d: Sum(rhs),rhsMax =  -1.58206781009085E-15  7.31289635194147E-02
 cg2d: Sum(rhs),rhsMax =  -1.66533453693773E-15  7.47920407054669E-02
 cg2d: Sum(rhs),rhsMax =  -1.74860126378462E-15  7.64177411555024E-02
 cg2d: Sum(rhs),rhsMax =  -2.16493489801906E-15  7.79746106013342E-02
 cg2d: Sum(rhs),rhsMax =  -1.66533453693773E-15  7.94332555833646E-02
 cg2d: Sum(rhs),rhsMax =  -1.63757896132211E-15  8.07704834293989E-02
 cg2d: Sum(rhs),rhsMax =  -1.52655665885959E-15  8.19723990199665E-02
 cg2d: Sum(rhs),rhsMax =  -1.02695629777827E-15  8.30360026830601E-02
 cg2d: Sum(rhs),rhsMax =  -6.80011602582908E-16  8.39690756684005E-02
 cg2d: Sum(rhs),rhsMax =  -5.13478148889135E-16  8.47884155050402E-02
 cg2d: Sum(rhs),rhsMax =  -1.94289029309402E-16  8.55167463512555E-02
 cg2d: Sum(rhs),rhsMax =  -1.80411241501588E-16  8.61788332411815E-02
 cg2d: Sum(rhs),rhsMax =  -1.38777878078145E-17  8.67974392961796E-02
 cg2d: Sum(rhs),rhsMax =   6.24500451351651E-16  8.73897659407166E-02
 cg2d: Sum(rhs),rhsMax =   8.04911692853238E-16  8.79649137638420E-02
 cg2d: Sum(rhs),rhsMax =   7.63278329429795E-16  8.85227196936137E-02
 cg2d: Sum(rhs),rhsMax =   6.10622663543836E-16  8.90540992000183E-02
 cg2d: Sum(rhs),rhsMax =   3.74700270810990E-16  8.95427877954063E-02
 cg2d: Sum(rhs),rhsMax =   5.68989300120393E-16  8.99681683609922E-02
 cg2d: Sum(rhs),rhsMax =   7.42461647718073E-16  9.03087171850266E-02
 cg2d: Sum(rhs),rhsMax =   8.53483950180589E-16  9.05455210781511E-02
 cg2d: Sum(rhs),rhsMax =   9.36750677027476E-16  9.06653202817038E-02
 cg2d: Sum(rhs),rhsMax =   5.75928194024300E-16  9.06626164589074E-02
 cg2d: Sum(rhs),rhsMax =   6.86950496486816E-16  9.05405397431568E-02
 cg2d: Sum(rhs),rhsMax =   4.05925293378573E-16  9.03103701417029E-02
 cg2d: Sum(rhs),rhsMax =  -1.04083408558608E-17  8.99898242274081E-02
 cg2d: Sum(rhs),rhsMax =   1.26634813746307E-16  8.96004120364414E-02
 cg2d: Sum(rhs),rhsMax =   1.84748050191530E-16  8.91643088347430E-02
 cg2d: Sum(rhs),rhsMax =   1.21430643318376E-17  8.87012494829737E-02
 cg2d: Sum(rhs),rhsMax =  -9.02056207507940E-17  8.82259316756417E-02
 cg2d: Sum(rhs),rhsMax =  -5.89805981832114E-17  8.77463159036157E-02
 cg2d: Sum(rhs),rhsMax =  -1.80411241501588E-16  8.72630547578718E-02
 cg2d: Sum(rhs),rhsMax =  -2.91433543964104E-16  8.67700998922807E-02
 cg2d: Sum(rhs),rhsMax =  -5.48172618408671E-16  8.62563513524465E-02
 cg2d: Sum(rhs),rhsMax =  -3.92047505570758E-16  8.57080582095699E-02
 cg2d: Sum(rhs),rhsMax =  -8.15320033709099E-17  8.51115729176178E-02
 cg2d: Sum(rhs),rhsMax =  -1.23165366794353E-16  8.44560183072814E-02
 cg2d: Sum(rhs),rhsMax =   3.78169717762944E-16  8.37354506308109E-02
 cg2d: Sum(rhs),rhsMax =   5.03069808033274E-17  8.29501901320851E-02
 cg2d: Sum(rhs),rhsMax =  -9.84455572616838E-17  8.21071284256575E-02
 cg2d: Sum(rhs),rhsMax =  -6.76542155630955E-17  8.12189876975221E-02
 cg2d: Sum(rhs),rhsMax =  -2.69749500514394E-16  8.03026735601985E-02
 cg2d: Sum(rhs),rhsMax =  -3.20923843055709E-16  7.93770039758005E-02
 cg2d: Sum(rhs),rhsMax =  -5.96744875736022E-16  7.84601882554019E-02
 cg2d: Sum(rhs),rhsMax =  -5.56846235788555E-16  7.75674589250678E-02
 cg2d: Sum(rhs),rhsMax =  -2.42861286636753E-17  7.67092227067841E-02
 cg2d: Sum(rhs),rhsMax =   3.43475248243408E-16  7.58900036665366E-02
 cg2d: Sum(rhs),rhsMax =   7.07767178198537E-16  7.51083191866450E-02
 cg2d: Sum(rhs),rhsMax =   4.23272528138341E-16  7.43574803023902E-02
 cg2d: Sum(rhs),rhsMax =   4.37150315946155E-16  7.36271655782089E-02
 cg2d: Sum(rhs),rhsMax =   6.31439345255558E-16  7.29055030912946E-02
 cg2d: Sum(rhs),rhsMax =   7.14706072102445E-16  7.21813242235991E-02
 --> objf_test(bi,bj)   = -0.849803597943908E+00
 --> objf_tracer(bi,bj) =  0.000000000000000E+00
 --> objf_atl(bi,bj)    =  0.000000000000000E+00
  local fc = -0.849803597943908E+00
 global fc = -0.849803597943908E+00
 ph-check fcpertplus =  -0.849803598
 ph-check fcpertminus =  -0.849803598
(PID.TID 0000.0001)  MDSREADFIELD: opening global file: walls.bigRidge
(PID.TID 0000.0001) // =======================================================
(PID.TID 0000.0001) // Field Bottom depths (ini_depths) at iteration          1
(PID.TID 0000.0001) // CMIN =         -5.000000000000000E+03
(PID.TID 0000.0001) // CMAX =         -2.000000000000000E+03
(PID.TID 0000.0001) // CINT =          1.111111111111111E+02
(PID.TID 0000.0001) // SYMBOLS (CMIN->CMAX): -abcdefghijklmnopqrstuvwxyz+
(PID.TID 0000.0001) //                  0.0: .
(PID.TID 0000.0001) // RANGE I (Lo:Hi:Step):(  -1:   7:   1)
(PID.TID 0000.0001) // RANGE J (Lo:Hi:Step):(   7:  -1:  -1)
(PID.TID 0000.0001) // RANGE K (Lo:Hi:Step):(   1:   1:   1)
(PID.TID 0000.0001) // =======================================================
(PID.TID 0000.0001) K =   1
(PID.TID 0000.0001) //
(PID.TID 0000.0001) // |--J--|*01234567
(PID.TID 0000.0001) //      7 ----+----
(PID.TID 0000.0001) //      6 .........
(PID.TID 0000.0001) //      5 ----+----
(PID.TID 0000.0001) //      4 ----+----
(PID.TID 0000.0001) //      3 ----+----
(PID.TID 0000.0001) //      2 ----+----
(PID.TID 0000.0001) //      1 .........
(PID.TID 0000.0001) //      0 ----+----
(PID.TID 0000.0001) //     -1 ----+----
(PID.TID 0000.0001) // =======================================================
(PID.TID 0000.0001) // END OF FIELD                                          =
(PID.TID 0000.0001) // =======================================================
(PID.TID 0000.0001) 
(PID.TID 0000.0001) // =======================================================
(PID.TID 0000.0001) // Field Model R_low (ini_masks_etc) at iteration          1
(PID.TID 0000.0001) // CMIN =         -5.000000000000000E+03
(PID.TID 0000.0001) // CMAX =         -2.000000000000000E+03
(PID.TID 0000.0001) // CINT =          1.111111111111111E+02
(PID.TID 0000.0001) // SYMBOLS (CMIN->CMAX): -abcdefghijklmnopqrstuvwxyz+
(PID.TID 0000.0001) //                  0.0: .
(PID.TID 0000.0001) // RANGE I (Lo:Hi:Step):(  -1:   7:   1)
(PID.TID 0000.0001) // RANGE J (Lo:Hi:Step):(   7:  -1:  -1)
(PID.TID 0000.0001) // RANGE K (Lo:Hi:Step):(   1:   1:   1)
(PID.TID 0000.0001) // =======================================================
(PID.TID 0000.0001) K =   1
(PID.TID 0000.0001) //
(PID.TID 0000.0001) // |--J--|*01234567
(PID.TID 0000.0001) //      7 ----+----
(PID.TID 0000.0001) //      6 .........
(PID.TID 0000.0001) //      5 ----+----
(PID.TID 0000.0001) //      4 ----+----
(PID.TID 0000.0001) //      3 ----+----
(PID.TID 0000.0001) //      2 ----+----
(PID.TID 0000.0001) //      1 .........
(PID.TID 0000.0001) //      0 ----+----
(PID.TID 0000.0001) //     -1 ----+----
(PID.TID 0000.0001) // =======================================================
(PID.TID 0000.0001) // END OF FIELD                                          =
(PID.TID 0000.0001) // =======================================================
(PID.TID 0000.0001) 
(PID.TID 0000.0001) // =======================================================
(PID.TID 0000.0001) // Field Model Ro_surf (ini_masks_etc) at iteration          1
(PID.TID 0000.0001) // CMIN =          2.273736754432321E-13
(PID.TID 0000.0001) // CMAX =          2.273736754432321E-13
(PID.TID 0000.0001) // CINT =          0.000000000000000E+00
(PID.TID 0000.0001) // SYMBOLS (CMIN->CMAX): -abcdefghijklmnopqrstuvwxyz+
(PID.TID 0000.0001) //                  0.0: .
(PID.TID 0000.0001) // RANGE I (Lo:Hi:Step):(  -1:   7:   1)
(PID.TID 0000.0001) // RANGE J (Lo:Hi:Step):(   7:  -1:  -1)
(PID.TID 0000.0001) // RANGE K (Lo:Hi:Step):(   1:   1:   1)
(PID.TID 0000.0001) // =======================================================
(PID.TID 0000.0001) // =======================================================
(PID.TID 0000.0001) // END OF FIELD                                          =
(PID.TID 0000.0001) // =======================================================
(PID.TID 0000.0001) 
(PID.TID 0000.0001) // =======================================================
(PID.TID 0000.0001) // Field hFacC at iteration          1
(PID.TID 0000.0001) // CMIN =          1.000000000000000E+00
(PID.TID 0000.0001) // CMAX =          1.000000000000000E+00
(PID.TID 0000.0001) // CINT =          0.000000000000000E+00
(PID.TID 0000.0001) // SYMBOLS (CMIN->CMAX): -abcdefghijklmnopqrstuvwxyz+
(PID.TID 0000.0001) //                  0.0: .
(PID.TID 0000.0001) // RANGE I (Lo:Hi:Step):(  -1:   7:   1)
(PID.TID 0000.0001) // RANGE J (Lo:Hi:Step):(   7:  -1:  -1)
(PID.TID 0000.0001) // RANGE K (Lo:Hi:Step):(   1:   1:   1)
(PID.TID 0000.0001) // =======================================================
(PID.TID 0000.0001) // =======================================================
(PID.TID 0000.0001) // END OF FIELD                                          =
(PID.TID 0000.0001) // =======================================================
(PID.TID 0000.0001) 
(PID.TID 0000.0001) // =======================================================
(PID.TID 0000.0001) // Field hFacW at iteration          1
(PID.TID 0000.0001) // CMIN =          1.000000000000000E+00
(PID.TID 0000.0001) // CMAX =          1.000000000000000E+00
(PID.TID 0000.0001) // CINT =          0.000000000000000E+00
(PID.TID 0000.0001) // SYMBOLS (CMIN->CMAX): -abcdefghijklmnopqrstuvwxyz+
(PID.TID 0000.0001) //                  0.0: .
(PID.TID 0000.0001) // RANGE I (Lo:Hi:Step):(  -1:   7:   1)
(PID.TID 0000.0001) // RANGE J (Lo:Hi:Step):(   7:  -1:  -1)
(PID.TID 0000.0001) // RANGE K (Lo:Hi:Step):(   1:   1:   1)
(PID.TID 0000.0001) // =======================================================
(PID.TID 0000.0001) // =======================================================
(PID.TID 0000.0001) // END OF FIELD                                          =
(PID.TID 0000.0001) // =======================================================
(PID.TID 0000.0001) 
(PID.TID 0000.0001) // =======================================================
(PID.TID 0000.0001) // Field hFacS at iteration          1
(PID.TID 0000.0001) // CMIN =          1.000000000000000E+00
(PID.TID 0000.0001) // CMAX =          1.000000000000000E+00
(PID.TID 0000.0001) // CINT =          0.000000000000000E+00
(PID.TID 0000.0001) // SYMBOLS (CMIN->CMAX): -abcdefghijklmnopqrstuvwxyz+
(PID.TID 0000.0001) //                  0.0: .
(PID.TID 0000.0001) // RANGE I (Lo:Hi:Step):(  -1:   7:   1)
(PID.TID 0000.0001) // RANGE J (Lo:Hi:Step):(   7:  -1:  -1)
(PID.TID 0000.0001) // RANGE K (Lo:Hi:Step):(   1:   1:   1)
(PID.TID 0000.0001) // =======================================================
(PID.TID 0000.0001) // =======================================================
(PID.TID 0000.0001) // END OF FIELD                                          =
(PID.TID 0000.0001) // =======================================================
(PID.TID 0000.0001) 
(PID.TID 0000.0001) %MON surfExpanfCori_max           =  -1.0735540000000E-04
(PID.TID 0000.0001) %MON surfExpanfCori_min           =  -1.1783060000000E-04
(PID.TID 0000.0001) %MON surfExpanfCori_mean          =  -1.1259300000000E-04
(PID.TID 0000.0001) %MON surfExpanfCori_sd            =   3.7035424771427E-06
(PID.TID 0000.0001) %MON surfExpanfCoriG_max          =  -1.0866480000000E-04
(PID.TID 0000.0001) %MON surfExpanfCoriG_min          =  -1.1914000000000E-04
(PID.TID 0000.0001) %MON surfExpanfCoriG_mean         =  -1.1390240000000E-04
(PID.TID 0000.0001) %MON surfExpanfCoriG_sd           =   3.7035424771427E-06
(PID.TID 0000.0001) %MON surfExpanfCoriCos_max        =   0.0000000000000E+00
(PID.TID 0000.0001) %MON surfExpanfCoriCos_min        =   0.0000000000000E+00
(PID.TID 0000.0001) %MON surfExpanfCoriCos_mean       =   0.0000000000000E+00
(PID.TID 0000.0001) %MON surfExpanfCoriCos_sd         =   0.0000000000000E+00
(PID.TID 0000.0001) INI_CG2D: CG2D normalisation factor =  1.9999999999999996E-04
(PID.TID 0000.0001) 
                     ctrl_depth_ini: ctrl update R_low,
                                     adding the control vector.
(PID.TID 0000.0001)  MDSREADFIELD: opening file: xx_depth.0000000000.001.001.data
(PID.TID 0000.0001) // =======================================================
(PID.TID 0000.0001) // Field Model Ro_surf (update_masks_etc) at iteration          1
(PID.TID 0000.0001) // CMIN =          2.273736754432321E-13
(PID.TID 0000.0001) // CMAX =          2.273736754432321E-13
(PID.TID 0000.0001) // CINT =          0.000000000000000E+00
(PID.TID 0000.0001) // SYMBOLS (CMIN->CMAX): -abcdefghijklmnopqrstuvwxyz+
(PID.TID 0000.0001) //                  0.0: .
(PID.TID 0000.0001) // RANGE I (Lo:Hi:Step):(  -1:   7:   1)
(PID.TID 0000.0001) // RANGE J (Lo:Hi:Step):(   7:  -1:  -1)
(PID.TID 0000.0001) // RANGE K (Lo:Hi:Step):(   1:   1:   1)
(PID.TID 0000.0001) // =======================================================
(PID.TID 0000.0001) // =======================================================
(PID.TID 0000.0001) // END OF FIELD                                          =
(PID.TID 0000.0001) // =======================================================
(PID.TID 0000.0001) 
(PID.TID 0000.0001) // =======================================================
(PID.TID 0000.0001) // Field hFacC at iteration          1
(PID.TID 0000.0001) // CMIN =          1.000000000000000E+00
(PID.TID 0000.0001) // CMAX =          1.000000000000000E+00
(PID.TID 0000.0001) // CINT =          0.000000000000000E+00
(PID.TID 0000.0001) // SYMBOLS (CMIN->CMAX): -abcdefghijklmnopqrstuvwxyz+
(PID.TID 0000.0001) //                  0.0: .
(PID.TID 0000.0001) // RANGE I (Lo:Hi:Step):(  -1:   7:   1)
(PID.TID 0000.0001) // RANGE J (Lo:Hi:Step):(   7:  -1:  -1)
(PID.TID 0000.0001) // RANGE K (Lo:Hi:Step):(   1:   1:   1)
(PID.TID 0000.0001) // =======================================================
(PID.TID 0000.0001) // =======================================================
(PID.TID 0000.0001) // END OF FIELD                                          =
(PID.TID 0000.0001) // =======================================================
(PID.TID 0000.0001) 
(PID.TID 0000.0001) // =======================================================
(PID.TID 0000.0001) // Field hFacW at iteration          1
(PID.TID 0000.0001) // CMIN =          1.000000000000000E+00
(PID.TID 0000.0001) // CMAX =          1.000000000000000E+00
(PID.TID 0000.0001) // CINT =          0.000000000000000E+00
(PID.TID 0000.0001) // SYMBOLS (CMIN->CMAX): -abcdefghijklmnopqrstuvwxyz+
(PID.TID 0000.0001) //                  0.0: .
(PID.TID 0000.0001) // RANGE I (Lo:Hi:Step):(  -1:   7:   1)
(PID.TID 0000.0001) // RANGE J (Lo:Hi:Step):(   7:  -1:  -1)
(PID.TID 0000.0001) // RANGE K (Lo:Hi:Step):(   1:   1:   1)
(PID.TID 0000.0001) // =======================================================
(PID.TID 0000.0001) // =======================================================
(PID.TID 0000.0001) // END OF FIELD                                          =
(PID.TID 0000.0001) // =======================================================
(PID.TID 0000.0001) 
(PID.TID 0000.0001) // =======================================================
(PID.TID 0000.0001) // Field hFacS at iteration          1
(PID.TID 0000.0001) // CMIN =          1.000000000000000E+00
(PID.TID 0000.0001) // CMAX =          1.000000000000000E+00
(PID.TID 0000.0001) // CINT =          0.000000000000000E+00
(PID.TID 0000.0001) // SYMBOLS (CMIN->CMAX): -abcdefghijklmnopqrstuvwxyz+
(PID.TID 0000.0001) //                  0.0: .
(PID.TID 0000.0001) // RANGE I (Lo:Hi:Step):(  -1:   7:   1)
(PID.TID 0000.0001) // RANGE J (Lo:Hi:Step):(   7:  -1:  -1)
(PID.TID 0000.0001) // RANGE K (Lo:Hi:Step):(   1:   1:   1)
(PID.TID 0000.0001) // =======================================================
(PID.TID 0000.0001) // =======================================================
(PID.TID 0000.0001) // END OF FIELD                                          =
(PID.TID 0000.0001) // =======================================================
(PID.TID 0000.0001) 
(PID.TID 0000.0001) // =======================================================
(PID.TID 0000.0001) // Field Initial Temperature at iteration          1
(PID.TID 0000.0001) // CMIN =          4.000000000000000E+00
(PID.TID 0000.0001) // CMAX =          4.000000000000000E+00
(PID.TID 0000.0001) // CINT =          0.000000000000000E+00
(PID.TID 0000.0001) // SYMBOLS (CMIN->CMAX): -abcdefghijklmnopqrstuvwxyz+
(PID.TID 0000.0001) //                  0.0: .
(PID.TID 0000.0001) // RANGE I (Lo:Hi:Step):(   1:   5:   1)
(PID.TID 0000.0001) // RANGE J (Lo:Hi:Step):(   5:   1:  -1)
(PID.TID 0000.0001) // RANGE K (Lo:Hi:Step):(   1:   1:   1)
(PID.TID 0000.0001) // =======================================================
(PID.TID 0000.0001) // =======================================================
(PID.TID 0000.0001) // END OF FIELD                                          =
(PID.TID 0000.0001) // =======================================================
(PID.TID 0000.0001) 
(PID.TID 0000.0001) // =======================================================
(PID.TID 0000.0001) // Field Initial Salinity at iteration          1
(PID.TID 0000.0001) // CMIN =          3.500000000000000E+01
(PID.TID 0000.0001) // CMAX =          3.500000000000000E+01
(PID.TID 0000.0001) // CINT =          0.000000000000000E+00
(PID.TID 0000.0001) // SYMBOLS (CMIN->CMAX): -abcdefghijklmnopqrstuvwxyz+
(PID.TID 0000.0001) //                  0.0: .
(PID.TID 0000.0001) // RANGE I (Lo:Hi:Step):(   1:   5:   1)
(PID.TID 0000.0001) // RANGE J (Lo:Hi:Step):(   5:   1:  -1)
(PID.TID 0000.0001) // RANGE K (Lo:Hi:Step):(   1:   1:   1)
(PID.TID 0000.0001) // =======================================================
(PID.TID 0000.0001) // =======================================================
(PID.TID 0000.0001) // END OF FIELD                                          =
(PID.TID 0000.0001) // =======================================================
(PID.TID 0000.0001) 
(PID.TID 0000.0001) Start initial hydrostatic pressure computation
(PID.TID 0000.0001) Pressure is predetermined for buoyancyRelation OCEANIC
(PID.TID 0000.0001) 
(PID.TID 0000.0001)  MDSREADFIELD: opening global file: windx.sin_y
(PID.TID 0000.0001) // =======================================================
(PID.TID 0000.0001) // Model current state
(PID.TID 0000.0001) // =======================================================
(PID.TID 0000.0001) 
 cg2d: Sum(rhs),rhsMax =   0.00000000000000E+00  0.00000000000000E+00
 cg2d: Sum(rhs),rhsMax =   4.68375338513738E-16  2.62483626325265E-03
 cg2d: Sum(rhs),rhsMax =   3.76434994286967E-16  5.13362633360820E-03
 cg2d: Sum(rhs),rhsMax =   2.51534904016637E-16  7.16168459280808E-03
 cg2d: Sum(rhs),rhsMax =   6.80878964320897E-16  9.29466755986014E-03
 cg2d: Sum(rhs),rhsMax =   9.26342336171615E-16  1.15304356797511E-02
 cg2d: Sum(rhs),rhsMax =   6.98659879949659E-16  1.37809802353870E-02
 cg2d: Sum(rhs),rhsMax =   9.71445146547012E-16  1.60011247469289E-02
 cg2d: Sum(rhs),rhsMax =   5.20417042793042E-16  1.82027337912225E-02
 cg2d: Sum(rhs),rhsMax =   6.93889390390723E-17  2.04493560871551E-02
 cg2d: Sum(rhs),rhsMax =   2.08166817117217E-16  2.25706027739098E-02
 cg2d: Sum(rhs),rhsMax =   6.24500451351651E-16  2.45301657162020E-02
 cg2d: Sum(rhs),rhsMax =   9.15933995315754E-16  2.63097944374927E-02
 cg2d: Sum(rhs),rhsMax =   9.71445146547012E-17  2.79110497217142E-02
 cg2d: Sum(rhs),rhsMax =   1.38777878078145E-17  2.93538602383664E-02
 cg2d: Sum(rhs),rhsMax =   3.33066907387547E-16  3.06720439109423E-02
 cg2d: Sum(rhs),rhsMax =  -4.99600361081320E-16  3.19067816610536E-02
 cg2d: Sum(rhs),rhsMax =  -4.16333634234434E-17  3.30992667639499E-02
 cg2d: Sum(rhs),rhsMax =  -6.31439345255558E-16  3.42837432842201E-02
 cg2d: Sum(rhs),rhsMax =  -1.17961196366423E-16  3.54819650782976E-02
 cg2d: Sum(rhs),rhsMax =  -4.02455846426619E-16  3.66998058458972E-02
 cg2d: Sum(rhs),rhsMax =  -3.53883589099269E-16  3.79264045504640E-02
 cg2d: Sum(rhs),rhsMax =  -1.45716771982052E-16  3.91358858388561E-02
 cg2d: Sum(rhs),rhsMax =  -1.80411241501588E-16  4.02913639261801E-02
 cg2d: Sum(rhs),rhsMax =  -8.18789480661053E-16  4.13506294670109E-02
 cg2d: Sum(rhs),rhsMax =  -2.22044604925031E-16  4.22726606684742E-02
 cg2d: Sum(rhs),rhsMax =  -2.08166817117217E-16  4.30239435265244E-02
 cg2d: Sum(rhs),rhsMax =  -3.88578058618805E-16  4.35835862263463E-02
 cg2d: Sum(rhs),rhsMax =  -2.08166817117217E-16  4.39463978549371E-02
 cg2d: Sum(rhs),rhsMax =   1.38777878078145E-16  4.41234514687522E-02
 cg2d: Sum(rhs),rhsMax =   3.74700270810990E-16  4.41400962296584E-02
 cg2d: Sum(rhs),rhsMax =   5.55111512312578E-16  4.40318241364020E-02
 cg2d: Sum(rhs),rhsMax =   1.66533453693773E-16  4.38387397480459E-02
 cg2d: Sum(rhs),rhsMax =  -4.57966997657877E-16  4.54379564434545E-02
 cg2d: Sum(rhs),rhsMax =  -6.52256026967279E-16  4.77259345831477E-02
 cg2d: Sum(rhs),rhsMax =  -4.16333634234434E-16  4.99949947407192E-02
 cg2d: Sum(rhs),rhsMax =  -1.16573417585641E-15  5.22073351048866E-02
 cg2d: Sum(rhs),rhsMax =  -2.22044604925031E-16  5.43317160002372E-02
 cg2d: Sum(rhs),rhsMax =  -1.24900090270330E-16  5.63476439505484E-02
 cg2d: Sum(rhs),rhsMax =  -1.94289029309402E-16  5.82478252901776E-02
 cg2d: Sum(rhs),rhsMax =   1.66533453693773E-16  6.00385233032928E-02
 cg2d: Sum(rhs),rhsMax =  -3.05311331771918E-16  6.17377934916124E-02
 cg2d: Sum(rhs),rhsMax =   1.66533453693773E-16  6.33719188831750E-02
 cg2d: Sum(rhs),rhsMax =  -5.55111512312578E-17  6.49706567783974E-02
 cg2d: Sum(rhs),rhsMax =  -5.27355936696949E-16  6.65620861371268E-02
 cg2d: Sum(rhs),rhsMax =  -6.93889390390723E-16  6.81678818718649E-02
 cg2d: Sum(rhs),rhsMax =  -1.24900090270330E-15  6.97997402975090E-02
 cg2d: Sum(rhs),rhsMax =  -1.41553435639707E-15  7.14574674476168E-02
 cg2d: Sum(rhs),rhsMax =  -1.58206781009085E-15  7.31289635194147E-02
 cg2d: Sum(rhs),rhsMax =  -1.66533453693773E-15  7.47920407054669E-02
 cg2d: Sum(rhs),rhsMax =  -1.74860126378462E-15  7.64177411555024E-02
 cg2d: Sum(rhs),rhsMax =  -2.16493489801906E-15  7.79746106013342E-02
 cg2d: Sum(rhs),rhsMax =  -1.66533453693773E-15  7.94332555833646E-02
 cg2d: Sum(rhs),rhsMax =  -1.63757896132211E-15  8.07704834293989E-02
 cg2d: Sum(rhs),rhsMax =  -1.52655665885959E-15  8.19723990199665E-02
 cg2d: Sum(rhs),rhsMax =  -1.02695629777827E-15  8.30360026830601E-02
 cg2d: Sum(rhs),rhsMax =  -6.80011602582908E-16  8.39690756684005E-02
 cg2d: Sum(rhs),rhsMax =  -5.13478148889135E-16  8.47884155050402E-02
 cg2d: Sum(rhs),rhsMax =  -1.94289029309402E-16  8.55167463512555E-02
 cg2d: Sum(rhs),rhsMax =  -1.80411241501588E-16  8.61788332411815E-02
 cg2d: Sum(rhs),rhsMax =  -1.38777878078145E-17  8.67974392961796E-02
 cg2d: Sum(rhs),rhsMax =   6.24500451351651E-16  8.73897659407166E-02
 cg2d: Sum(rhs),rhsMax =   8.04911692853238E-16  8.79649137638420E-02
 cg2d: Sum(rhs),rhsMax =   7.63278329429795E-16  8.85227196936137E-02
 cg2d: Sum(rhs),rhsMax =   6.10622663543836E-16  8.90540992000183E-02
 cg2d: Sum(rhs),rhsMax =   3.74700270810990E-16  8.95427877954063E-02
 cg2d: Sum(rhs),rhsMax =   5.68989300120393E-16  8.99681683609922E-02
 cg2d: Sum(rhs),rhsMax =   7.42461647718073E-16  9.03087171850266E-02
 cg2d: Sum(rhs),rhsMax =   8.53483950180589E-16  9.05455210781511E-02
 cg2d: Sum(rhs),rhsMax =   9.36750677027476E-16  9.06653202817038E-02
 cg2d: Sum(rhs),rhsMax =   5.75928194024300E-16  9.06626164589074E-02
 cg2d: Sum(rhs),rhsMax =   6.86950496486816E-16  9.05405397431568E-02
 cg2d: Sum(rhs),rhsMax =   4.05925293378573E-16  9.03103701417029E-02
 cg2d: Sum(rhs),rhsMax =  -1.04083408558608E-17  8.99898242274081E-02
 cg2d: Sum(rhs),rhsMax =   1.26634813746307E-16  8.96004120364414E-02
 cg2d: Sum(rhs),rhsMax =   1.84748050191530E-16  8.91643088347430E-02
 cg2d: Sum(rhs),rhsMax =   1.21430643318376E-17  8.87012494829737E-02
 cg2d: Sum(rhs),rhsMax =  -9.02056207507940E-17  8.82259316756417E-02
 cg2d: Sum(rhs),rhsMax =  -5.89805981832114E-17  8.77463159036157E-02
 cg2d: Sum(rhs),rhsMax =  -1.80411241501588E-16  8.72630547578718E-02
 cg2d: Sum(rhs),rhsMax =  -2.91433543964104E-16  8.67700998922807E-02
 cg2d: Sum(rhs),rhsMax =  -5.48172618408671E-16  8.62563513524465E-02
 cg2d: Sum(rhs),rhsMax =  -3.92047505570758E-16  8.57080582095699E-02
 cg2d: Sum(rhs),rhsMax =  -8.15320033709099E-17  8.51115729176178E-02
 cg2d: Sum(rhs),rhsMax =  -1.23165366794353E-16  8.44560183072814E-02
 cg2d: Sum(rhs),rhsMax =   3.78169717762944E-16  8.37354506308109E-02
 cg2d: Sum(rhs),rhsMax =   5.03069808033274E-17  8.29501901320851E-02
 cg2d: Sum(rhs),rhsMax =  -9.84455572616838E-17  8.21071284256575E-02
 cg2d: Sum(rhs),rhsMax =  -6.76542155630955E-17  8.12189876975221E-02
 cg2d: Sum(rhs),rhsMax =  -2.69749500514394E-16  8.03026735601985E-02
 cg2d: Sum(rhs),rhsMax =  -3.20923843055709E-16  7.93770039758005E-02
 cg2d: Sum(rhs),rhsMax =  -5.96744875736022E-16  7.84601882554019E-02
 cg2d: Sum(rhs),rhsMax =  -5.56846235788555E-16  7.75674589250678E-02
 cg2d: Sum(rhs),rhsMax =  -2.42861286636753E-17  7.67092227067841E-02
 cg2d: Sum(rhs),rhsMax =   3.43475248243408E-16  7.58900036665366E-02
 cg2d: Sum(rhs),rhsMax =   7.07767178198537E-16  7.51083191866450E-02
 cg2d: Sum(rhs),rhsMax =   4.23272528138341E-16  7.43574803023902E-02
 cg2d: Sum(rhs),rhsMax =   4.37150315946155E-16  7.36271655782089E-02
 cg2d: Sum(rhs),rhsMax =   6.31439345255558E-16  7.29055030912946E-02
 cg2d: Sum(rhs),rhsMax =   7.14706072102445E-16  7.21813242235991E-02
 --> objf_test(bi,bj)   = -0.849803597943908E+00
 --> objf_tracer(bi,bj) =  0.000000000000000E+00
 --> objf_atl(bi,bj)    =  0.000000000000000E+00
  local fc = -0.849803597943908E+00
 global fc = -0.849803597943908E+00
 ph-grd  ierr ---------------------------
 ph-grd  ierr =  -3, icomp =  22, ichknum =  22
(PID.TID 0000.0001)  MDSREADFIELD: opening global file: walls.bigRidge
(PID.TID 0000.0001) // =======================================================
(PID.TID 0000.0001) // Field Bottom depths (ini_depths) at iteration          1
(PID.TID 0000.0001) // CMIN =         -5.000000000000000E+03
(PID.TID 0000.0001) // CMAX =         -2.000000000000000E+03
(PID.TID 0000.0001) // CINT =          1.111111111111111E+02
(PID.TID 0000.0001) // SYMBOLS (CMIN->CMAX): -abcdefghijklmnopqrstuvwxyz+
(PID.TID 0000.0001) //                  0.0: .
(PID.TID 0000.0001) // RANGE I (Lo:Hi:Step):(  -1:   7:   1)
(PID.TID 0000.0001) // RANGE J (Lo:Hi:Step):(   7:  -1:  -1)
(PID.TID 0000.0001) // RANGE K (Lo:Hi:Step):(   1:   1:   1)
(PID.TID 0000.0001) // =======================================================
(PID.TID 0000.0001) K =   1
(PID.TID 0000.0001) //
(PID.TID 0000.0001) // |--J--|*01234567
(PID.TID 0000.0001) //      7 ----+----
(PID.TID 0000.0001) //      6 .........
(PID.TID 0000.0001) //      5 ----+----
(PID.TID 0000.0001) //      4 ----+----
(PID.TID 0000.0001) //      3 ----+----
(PID.TID 0000.0001) //      2 ----+----
(PID.TID 0000.0001) //      1 .........
(PID.TID 0000.0001) //      0 ----+----
(PID.TID 0000.0001) //     -1 ----+----
(PID.TID 0000.0001) // =======================================================
(PID.TID 0000.0001) // END OF FIELD                                          =
(PID.TID 0000.0001) // =======================================================
(PID.TID 0000.0001) 
(PID.TID 0000.0001) // =======================================================
(PID.TID 0000.0001) // Field Model R_low (ini_masks_etc) at iteration          1
(PID.TID 0000.0001) // CMIN =         -5.000000000000000E+03
(PID.TID 0000.0001) // CMAX =         -2.000000000000000E+03
(PID.TID 0000.0001) // CINT =          1.111111111111111E+02
(PID.TID 0000.0001) // SYMBOLS (CMIN->CMAX): -abcdefghijklmnopqrstuvwxyz+
(PID.TID 0000.0001) //                  0.0: .
(PID.TID 0000.0001) // RANGE I (Lo:Hi:Step):(  -1:   7:   1)
(PID.TID 0000.0001) // RANGE J (Lo:Hi:Step):(   7:  -1:  -1)
(PID.TID 0000.0001) // RANGE K (Lo:Hi:Step):(   1:   1:   1)
(PID.TID 0000.0001) // =======================================================
(PID.TID 0000.0001) K =   1
(PID.TID 0000.0001) //
(PID.TID 0000.0001) // |--J--|*01234567
(PID.TID 0000.0001) //      7 ----+----
(PID.TID 0000.0001) //      6 .........
(PID.TID 0000.0001) //      5 ----+----
(PID.TID 0000.0001) //      4 ----+----
(PID.TID 0000.0001) //      3 ----+----
(PID.TID 0000.0001) //      2 ----+----
(PID.TID 0000.0001) //      1 .........
(PID.TID 0000.0001) //      0 ----+----
(PID.TID 0000.0001) //     -1 ----+----
(PID.TID 0000.0001) // =======================================================
(PID.TID 0000.0001) // END OF FIELD                                          =
(PID.TID 0000.0001) // =======================================================
(PID.TID 0000.0001) 
(PID.TID 0000.0001) // =======================================================
(PID.TID 0000.0001) // Field Model Ro_surf (ini_masks_etc) at iteration          1
(PID.TID 0000.0001) // CMIN =          2.273736754432321E-13
(PID.TID 0000.0001) // CMAX =          2.273736754432321E-13
(PID.TID 0000.0001) // CINT =          0.000000000000000E+00
(PID.TID 0000.0001) // SYMBOLS (CMIN->CMAX): -abcdefghijklmnopqrstuvwxyz+
(PID.TID 0000.0001) //                  0.0: .
(PID.TID 0000.0001) // RANGE I (Lo:Hi:Step):(  -1:   7:   1)
(PID.TID 0000.0001) // RANGE J (Lo:Hi:Step):(   7:  -1:  -1)
(PID.TID 0000.0001) // RANGE K (Lo:Hi:Step):(   1:   1:   1)
(PID.TID 0000.0001) // =======================================================
(PID.TID 0000.0001) // =======================================================
(PID.TID 0000.0001) // END OF FIELD                                          =
(PID.TID 0000.0001) // =======================================================
(PID.TID 0000.0001) 
(PID.TID 0000.0001) // =======================================================
(PID.TID 0000.0001) // Field hFacC at iteration          1
(PID.TID 0000.0001) // CMIN =          1.000000000000000E+00
(PID.TID 0000.0001) // CMAX =          1.000000000000000E+00
(PID.TID 0000.0001) // CINT =          0.000000000000000E+00
(PID.TID 0000.0001) // SYMBOLS (CMIN->CMAX): -abcdefghijklmnopqrstuvwxyz+
(PID.TID 0000.0001) //                  0.0: .
(PID.TID 0000.0001) // RANGE I (Lo:Hi:Step):(  -1:   7:   1)
(PID.TID 0000.0001) // RANGE J (Lo:Hi:Step):(   7:  -1:  -1)
(PID.TID 0000.0001) // RANGE K (Lo:Hi:Step):(   1:   1:   1)
(PID.TID 0000.0001) // =======================================================
(PID.TID 0000.0001) // =======================================================
(PID.TID 0000.0001) // END OF FIELD                                          =
(PID.TID 0000.0001) // =======================================================
(PID.TID 0000.0001) 
(PID.TID 0000.0001) // =======================================================
(PID.TID 0000.0001) // Field hFacW at iteration          1
(PID.TID 0000.0001) // CMIN =          1.000000000000000E+00
(PID.TID 0000.0001) // CMAX =          1.000000000000000E+00
(PID.TID 0000.0001) // CINT =          0.000000000000000E+00
(PID.TID 0000.0001) // SYMBOLS (CMIN->CMAX): -abcdefghijklmnopqrstuvwxyz+
(PID.TID 0000.0001) //                  0.0: .
(PID.TID 0000.0001) // RANGE I (Lo:Hi:Step):(  -1:   7:   1)
(PID.TID 0000.0001) // RANGE J (Lo:Hi:Step):(   7:  -1:  -1)
(PID.TID 0000.0001) // RANGE K (Lo:Hi:Step):(   1:   1:   1)
(PID.TID 0000.0001) // =======================================================
(PID.TID 0000.0001) // =======================================================
(PID.TID 0000.0001) // END OF FIELD                                          =
(PID.TID 0000.0001) // =======================================================
(PID.TID 0000.0001) 
(PID.TID 0000.0001) // =======================================================
(PID.TID 0000.0001) // Field hFacS at iteration          1
(PID.TID 0000.0001) // CMIN =          1.000000000000000E+00
(PID.TID 0000.0001) // CMAX =          1.000000000000000E+00
(PID.TID 0000.0001) // CINT =          0.000000000000000E+00
(PID.TID 0000.0001) // SYMBOLS (CMIN->CMAX): -abcdefghijklmnopqrstuvwxyz+
(PID.TID 0000.0001) //                  0.0: .
(PID.TID 0000.0001) // RANGE I (Lo:Hi:Step):(  -1:   7:   1)
(PID.TID 0000.0001) // RANGE J (Lo:Hi:Step):(   7:  -1:  -1)
(PID.TID 0000.0001) // RANGE K (Lo:Hi:Step):(   1:   1:   1)
(PID.TID 0000.0001) // =======================================================
(PID.TID 0000.0001) // =======================================================
(PID.TID 0000.0001) // END OF FIELD                                          =
(PID.TID 0000.0001) // =======================================================
(PID.TID 0000.0001) 
(PID.TID 0000.0001) %MON surfExpanfCori_max           =  -1.0735540000000E-04
(PID.TID 0000.0001) %MON surfExpanfCori_min           =  -1.1783060000000E-04
(PID.TID 0000.0001) %MON surfExpanfCori_mean          =  -1.1259300000000E-04
(PID.TID 0000.0001) %MON surfExpanfCori_sd            =   3.7035424771427E-06
(PID.TID 0000.0001) %MON surfExpanfCoriG_max          =  -1.0866480000000E-04
(PID.TID 0000.0001) %MON surfExpanfCoriG_min          =  -1.1914000000000E-04
(PID.TID 0000.0001) %MON surfExpanfCoriG_mean         =  -1.1390240000000E-04
(PID.TID 0000.0001) %MON surfExpanfCoriG_sd           =   3.7035424771427E-06
(PID.TID 0000.0001) %MON surfExpanfCoriCos_max        =   0.0000000000000E+00
(PID.TID 0000.0001) %MON surfExpanfCoriCos_min        =   0.0000000000000E+00
(PID.TID 0000.0001) %MON surfExpanfCoriCos_mean       =   0.0000000000000E+00
(PID.TID 0000.0001) %MON surfExpanfCoriCos_sd         =   0.0000000000000E+00
(PID.TID 0000.0001) INI_CG2D: CG2D normalisation factor =  1.9999999999999996E-04
(PID.TID 0000.0001) 
                     ctrl_depth_ini: ctrl update R_low,
                                     adding the control vector.
(PID.TID 0000.0001)  MDSREADFIELD: opening file: xx_depth.0000000000.001.001.data
(PID.TID 0000.0001) // =======================================================
(PID.TID 0000.0001) // Field Model Ro_surf (update_masks_etc) at iteration          1
(PID.TID 0000.0001) // CMIN =          2.273736754432321E-13
(PID.TID 0000.0001) // CMAX =          2.273736754432321E-13
(PID.TID 0000.0001) // CINT =          0.000000000000000E+00
(PID.TID 0000.0001) // SYMBOLS (CMIN->CMAX): -abcdefghijklmnopqrstuvwxyz+
(PID.TID 0000.0001) //                  0.0: .
(PID.TID 0000.0001) // RANGE I (Lo:Hi:Step):(  -1:   7:   1)
(PID.TID 0000.0001) // RANGE J (Lo:Hi:Step):(   7:  -1:  -1)
(PID.TID 0000.0001) // RANGE K (Lo:Hi:Step):(   1:   1:   1)
(PID.TID 0000.0001) // =======================================================
(PID.TID 0000.0001) // =======================================================
(PID.TID 0000.0001) // END OF FIELD                                          =
(PID.TID 0000.0001) // =======================================================
(PID.TID 0000.0001) 
(PID.TID 0000.0001) // =======================================================
(PID.TID 0000.0001) // Field hFacC at iteration          1
(PID.TID 0000.0001) // CMIN =          1.000000000000000E+00
(PID.TID 0000.0001) // CMAX =          1.000000000000000E+00
(PID.TID 0000.0001) // CINT =          0.000000000000000E+00
(PID.TID 0000.0001) // SYMBOLS (CMIN->CMAX): -abcdefghijklmnopqrstuvwxyz+
(PID.TID 0000.0001) //                  0.0: .
(PID.TID 0000.0001) // RANGE I (Lo:Hi:Step):(  -1:   7:   1)
(PID.TID 0000.0001) // RANGE J (Lo:Hi:Step):(   7:  -1:  -1)
(PID.TID 0000.0001) // RANGE K (Lo:Hi:Step):(   1:   1:   1)
(PID.TID 0000.0001) // =======================================================
(PID.TID 0000.0001) // =======================================================
(PID.TID 0000.0001) // END OF FIELD                                          =
(PID.TID 0000.0001) // =======================================================
(PID.TID 0000.0001) 
(PID.TID 0000.0001) // =======================================================
(PID.TID 0000.0001) // Field hFacW at iteration          1
(PID.TID 0000.0001) // CMIN =          1.000000000000000E+00
(PID.TID 0000.0001) // CMAX =          1.000000000000000E+00
(PID.TID 0000.0001) // CINT =          0.000000000000000E+00
(PID.TID 0000.0001) // SYMBOLS (CMIN->CMAX): -abcdefghijklmnopqrstuvwxyz+
(PID.TID 0000.0001) //                  0.0: .
(PID.TID 0000.0001) // RANGE I (Lo:Hi:Step):(  -1:   7:   1)
(PID.TID 0000.0001) // RANGE J (Lo:Hi:Step):(   7:  -1:  -1)
(PID.TID 0000.0001) // RANGE K (Lo:Hi:Step):(   1:   1:   1)
(PID.TID 0000.0001) // =======================================================
(PID.TID 0000.0001) // =======================================================
(PID.TID 0000.0001) // END OF FIELD                                          =
(PID.TID 0000.0001) // =======================================================
(PID.TID 0000.0001) 
(PID.TID 0000.0001) // =======================================================
(PID.TID 0000.0001) // Field hFacS at iteration          1
(PID.TID 0000.0001) // CMIN =          1.000000000000000E+00
(PID.TID 0000.0001) // CMAX =          1.000000000000000E+00
(PID.TID 0000.0001) // CINT =          0.000000000000000E+00
(PID.TID 0000.0001) // SYMBOLS (CMIN->CMAX): -abcdefghijklmnopqrstuvwxyz+
(PID.TID 0000.0001) //                  0.0: .
(PID.TID 0000.0001) // RANGE I (Lo:Hi:Step):(  -1:   7:   1)
(PID.TID 0000.0001) // RANGE J (Lo:Hi:Step):(   7:  -1:  -1)
(PID.TID 0000.0001) // RANGE K (Lo:Hi:Step):(   1:   1:   1)
(PID.TID 0000.0001) // =======================================================
(PID.TID 0000.0001) // =======================================================
(PID.TID 0000.0001) // END OF FIELD                                          =
(PID.TID 0000.0001) // =======================================================
(PID.TID 0000.0001) 
(PID.TID 0000.0001) // =======================================================
(PID.TID 0000.0001) // Field Initial Temperature at iteration          1
(PID.TID 0000.0001) // CMIN =          4.000000000000000E+00
(PID.TID 0000.0001) // CMAX =          4.000000000000000E+00
(PID.TID 0000.0001) // CINT =          0.000000000000000E+00
(PID.TID 0000.0001) // SYMBOLS (CMIN->CMAX): -abcdefghijklmnopqrstuvwxyz+
(PID.TID 0000.0001) //                  0.0: .
(PID.TID 0000.0001) // RANGE I (Lo:Hi:Step):(   1:   5:   1)
(PID.TID 0000.0001) // RANGE J (Lo:Hi:Step):(   5:   1:  -1)
(PID.TID 0000.0001) // RANGE K (Lo:Hi:Step):(   1:   1:   1)
(PID.TID 0000.0001) // =======================================================
(PID.TID 0000.0001) // =======================================================
(PID.TID 0000.0001) // END OF FIELD                                          =
(PID.TID 0000.0001) // =======================================================
(PID.TID 0000.0001) 
(PID.TID 0000.0001) // =======================================================
(PID.TID 0000.0001) // Field Initial Salinity at iteration          1
(PID.TID 0000.0001) // CMIN =          3.500000000000000E+01
(PID.TID 0000.0001) // CMAX =          3.500000000000000E+01
(PID.TID 0000.0001) // CINT =          0.000000000000000E+00
(PID.TID 0000.0001) // SYMBOLS (CMIN->CMAX): -abcdefghijklmnopqrstuvwxyz+
(PID.TID 0000.0001) //                  0.0: .
(PID.TID 0000.0001) // RANGE I (Lo:Hi:Step):(   1:   5:   1)
(PID.TID 0000.0001) // RANGE J (Lo:Hi:Step):(   5:   1:  -1)
(PID.TID 0000.0001) // RANGE K (Lo:Hi:Step):(   1:   1:   1)
(PID.TID 0000.0001) // =======================================================
(PID.TID 0000.0001) // =======================================================
(PID.TID 0000.0001) // END OF FIELD                                          =
(PID.TID 0000.0001) // =======================================================
(PID.TID 0000.0001) 
(PID.TID 0000.0001) Start initial hydrostatic pressure computation
(PID.TID 0000.0001) Pressure is predetermined for buoyancyRelation OCEANIC
(PID.TID 0000.0001) 
(PID.TID 0000.0001)  MDSREADFIELD: opening global file: windx.sin_y
(PID.TID 0000.0001) // =======================================================
(PID.TID 0000.0001) // Model current state
(PID.TID 0000.0001) // =======================================================
(PID.TID 0000.0001) 
 cg2d: Sum(rhs),rhsMax =   0.00000000000000E+00  0.00000000000000E+00
 cg2d: Sum(rhs),rhsMax =   4.68375338513738E-16  2.62483626325265E-03
 cg2d: Sum(rhs),rhsMax =   3.76434994286967E-16  5.13362633360820E-03
 cg2d: Sum(rhs),rhsMax =   2.51534904016637E-16  7.16168459280808E-03
 cg2d: Sum(rhs),rhsMax =   6.80878964320897E-16  9.29466755986014E-03
 cg2d: Sum(rhs),rhsMax =   9.26342336171615E-16  1.15304356797511E-02
 cg2d: Sum(rhs),rhsMax =   6.98659879949659E-16  1.37809802353870E-02
 cg2d: Sum(rhs),rhsMax =   9.71445146547012E-16  1.60011247469289E-02
 cg2d: Sum(rhs),rhsMax =   5.20417042793042E-16  1.82027337912225E-02
 cg2d: Sum(rhs),rhsMax =   6.93889390390723E-17  2.04493560871551E-02
 cg2d: Sum(rhs),rhsMax =   2.08166817117217E-16  2.25706027739098E-02
 cg2d: Sum(rhs),rhsMax =   6.24500451351651E-16  2.45301657162020E-02
 cg2d: Sum(rhs),rhsMax =   9.15933995315754E-16  2.63097944374927E-02
 cg2d: Sum(rhs),rhsMax =   9.71445146547012E-17  2.79110497217142E-02
 cg2d: Sum(rhs),rhsMax =   1.38777878078145E-17  2.93538602383664E-02
 cg2d: Sum(rhs),rhsMax =   3.33066907387547E-16  3.06720439109423E-02
 cg2d: Sum(rhs),rhsMax =  -4.99600361081320E-16  3.19067816610536E-02
 cg2d: Sum(rhs),rhsMax =  -4.16333634234434E-17  3.30992667639499E-02
 cg2d: Sum(rhs),rhsMax =  -6.31439345255558E-16  3.42837432842201E-02
 cg2d: Sum(rhs),rhsMax =  -1.17961196366423E-16  3.54819650782976E-02
 cg2d: Sum(rhs),rhsMax =  -4.02455846426619E-16  3.66998058458972E-02
 cg2d: Sum(rhs),rhsMax =  -3.53883589099269E-16  3.79264045504640E-02
 cg2d: Sum(rhs),rhsMax =  -1.45716771982052E-16  3.91358858388561E-02
 cg2d: Sum(rhs),rhsMax =  -1.80411241501588E-16  4.02913639261801E-02
 cg2d: Sum(rhs),rhsMax =  -8.18789480661053E-16  4.13506294670109E-02
 cg2d: Sum(rhs),rhsMax =  -2.22044604925031E-16  4.22726606684742E-02
 cg2d: Sum(rhs),rhsMax =  -2.08166817117217E-16  4.30239435265244E-02
 cg2d: Sum(rhs),rhsMax =  -3.88578058618805E-16  4.35835862263463E-02
 cg2d: Sum(rhs),rhsMax =  -2.08166817117217E-16  4.39463978549371E-02
 cg2d: Sum(rhs),rhsMax =   1.38777878078145E-16  4.41234514687522E-02
 cg2d: Sum(rhs),rhsMax =   3.74700270810990E-16  4.41400962296584E-02
 cg2d: Sum(rhs),rhsMax =   5.55111512312578E-16  4.40318241364020E-02
 cg2d: Sum(rhs),rhsMax =   1.66533453693773E-16  4.38387397480459E-02
 cg2d: Sum(rhs),rhsMax =  -4.57966997657877E-16  4.54379564434545E-02
 cg2d: Sum(rhs),rhsMax =  -6.52256026967279E-16  4.77259345831477E-02
 cg2d: Sum(rhs),rhsMax =  -4.16333634234434E-16  4.99949947407192E-02
 cg2d: Sum(rhs),rhsMax =  -1.16573417585641E-15  5.22073351048866E-02
 cg2d: Sum(rhs),rhsMax =  -2.22044604925031E-16  5.43317160002372E-02
 cg2d: Sum(rhs),rhsMax =  -1.24900090270330E-16  5.63476439505484E-02
 cg2d: Sum(rhs),rhsMax =  -1.94289029309402E-16  5.82478252901776E-02
 cg2d: Sum(rhs),rhsMax =   1.66533453693773E-16  6.00385233032928E-02
 cg2d: Sum(rhs),rhsMax =  -3.05311331771918E-16  6.17377934916124E-02
 cg2d: Sum(rhs),rhsMax =   1.66533453693773E-16  6.33719188831750E-02
 cg2d: Sum(rhs),rhsMax =  -5.55111512312578E-17  6.49706567783974E-02
 cg2d: Sum(rhs),rhsMax =  -5.27355936696949E-16  6.65620861371268E-02
 cg2d: Sum(rhs),rhsMax =  -6.93889390390723E-16  6.81678818718649E-02
 cg2d: Sum(rhs),rhsMax =  -1.24900090270330E-15  6.97997402975090E-02
 cg2d: Sum(rhs),rhsMax =  -1.41553435639707E-15  7.14574674476168E-02
 cg2d: Sum(rhs),rhsMax =  -1.58206781009085E-15  7.31289635194147E-02
 cg2d: Sum(rhs),rhsMax =  -1.66533453693773E-15  7.47920407054669E-02
 cg2d: Sum(rhs),rhsMax =  -1.74860126378462E-15  7.64177411555024E-02
 cg2d: Sum(rhs),rhsMax =  -2.16493489801906E-15  7.79746106013342E-02
 cg2d: Sum(rhs),rhsMax =  -1.66533453693773E-15  7.94332555833646E-02
 cg2d: Sum(rhs),rhsMax =  -1.63757896132211E-15  8.07704834293989E-02
 cg2d: Sum(rhs),rhsMax =  -1.52655665885959E-15  8.19723990199665E-02
 cg2d: Sum(rhs),rhsMax =  -1.02695629777827E-15  8.30360026830601E-02
 cg2d: Sum(rhs),rhsMax =  -6.80011602582908E-16  8.39690756684005E-02
 cg2d: Sum(rhs),rhsMax =  -5.13478148889135E-16  8.47884155050402E-02
 cg2d: Sum(rhs),rhsMax =  -1.94289029309402E-16  8.55167463512555E-02
 cg2d: Sum(rhs),rhsMax =  -1.80411241501588E-16  8.61788332411815E-02
 cg2d: Sum(rhs),rhsMax =  -1.38777878078145E-17  8.67974392961796E-02
 cg2d: Sum(rhs),rhsMax =   6.24500451351651E-16  8.73897659407166E-02
 cg2d: Sum(rhs),rhsMax =   8.04911692853238E-16  8.79649137638420E-02
 cg2d: Sum(rhs),rhsMax =   7.63278329429795E-16  8.85227196936137E-02
 cg2d: Sum(rhs),rhsMax =   6.10622663543836E-16  8.90540992000183E-02
 cg2d: Sum(rhs),rhsMax =   3.74700270810990E-16  8.95427877954063E-02
 cg2d: Sum(rhs),rhsMax =   5.68989300120393E-16  8.99681683609922E-02
 cg2d: Sum(rhs),rhsMax =   7.42461647718073E-16  9.03087171850266E-02
 cg2d: Sum(rhs),rhsMax =   8.53483950180589E-16  9.05455210781511E-02
 cg2d: Sum(rhs),rhsMax =   9.36750677027476E-16  9.06653202817038E-02
 cg2d: Sum(rhs),rhsMax =   5.75928194024300E-16  9.06626164589074E-02
 cg2d: Sum(rhs),rhsMax =   6.86950496486816E-16  9.05405397431568E-02
 cg2d: Sum(rhs),rhsMax =   4.05925293378573E-16  9.03103701417029E-02
 cg2d: Sum(rhs),rhsMax =  -1.04083408558608E-17  8.99898242274081E-02
 cg2d: Sum(rhs),rhsMax =   1.26634813746307E-16  8.96004120364414E-02
 cg2d: Sum(rhs),rhsMax =   1.84748050191530E-16  8.91643088347430E-02
 cg2d: Sum(rhs),rhsMax =   1.21430643318376E-17  8.87012494829737E-02
 cg2d: Sum(rhs),rhsMax =  -9.02056207507940E-17  8.82259316756417E-02
 cg2d: Sum(rhs),rhsMax =  -5.89805981832114E-17  8.77463159036157E-02
 cg2d: Sum(rhs),rhsMax =  -1.80411241501588E-16  8.72630547578718E-02
 cg2d: Sum(rhs),rhsMax =  -2.91433543964104E-16  8.67700998922807E-02
 cg2d: Sum(rhs),rhsMax =  -5.48172618408671E-16  8.62563513524465E-02
 cg2d: Sum(rhs),rhsMax =  -3.92047505570758E-16  8.57080582095699E-02
 cg2d: Sum(rhs),rhsMax =  -8.15320033709099E-17  8.51115729176178E-02
 cg2d: Sum(rhs),rhsMax =  -1.23165366794353E-16  8.44560183072814E-02
 cg2d: Sum(rhs),rhsMax =   3.78169717762944E-16  8.37354506308109E-02
 cg2d: Sum(rhs),rhsMax =   5.03069808033274E-17  8.29501901320851E-02
 cg2d: Sum(rhs),rhsMax =  -9.84455572616838E-17  8.21071284256575E-02
 cg2d: Sum(rhs),rhsMax =  -6.76542155630955E-17  8.12189876975221E-02
 cg2d: Sum(rhs),rhsMax =  -2.69749500514394E-16  8.03026735601985E-02
 cg2d: Sum(rhs),rhsMax =  -3.20923843055709E-16  7.93770039758005E-02
 cg2d: Sum(rhs),rhsMax =  -5.96744875736022E-16  7.84601882554019E-02
 cg2d: Sum(rhs),rhsMax =  -5.56846235788555E-16  7.75674589250678E-02
 cg2d: Sum(rhs),rhsMax =  -2.42861286636753E-17  7.67092227067841E-02
 cg2d: Sum(rhs),rhsMax =   3.43475248243408E-16  7.58900036665366E-02
 cg2d: Sum(rhs),rhsMax =   7.07767178198537E-16  7.51083191866450E-02
 cg2d: Sum(rhs),rhsMax =   4.23272528138341E-16  7.43574803023902E-02
 cg2d: Sum(rhs),rhsMax =   4.37150315946155E-16  7.36271655782089E-02
 cg2d: Sum(rhs),rhsMax =   6.31439345255558E-16  7.29055030912946E-02
 cg2d: Sum(rhs),rhsMax =   7.14706072102445E-16  7.21813242235991E-02
 --> objf_test(bi,bj)   = -0.849803597943908E+00
 --> objf_tracer(bi,bj) =  0.000000000000000E+00
 --> objf_atl(bi,bj)    =  0.000000000000000E+00
  local fc = -0.849803597943908E+00
 global fc = -0.849803597943908E+00
 ph-check fcpertplus =  -0.849803598
 ph-check fcpertminus =  -0.849803598
(PID.TID 0000.0001)  MDSREADFIELD: opening global file: walls.bigRidge
(PID.TID 0000.0001) // =======================================================
(PID.TID 0000.0001) // Field Bottom depths (ini_depths) at iteration          1
(PID.TID 0000.0001) // CMIN =         -5.000000000000000E+03
(PID.TID 0000.0001) // CMAX =         -2.000000000000000E+03
(PID.TID 0000.0001) // CINT =          1.111111111111111E+02
(PID.TID 0000.0001) // SYMBOLS (CMIN->CMAX): -abcdefghijklmnopqrstuvwxyz+
(PID.TID 0000.0001) //                  0.0: .
(PID.TID 0000.0001) // RANGE I (Lo:Hi:Step):(  -1:   7:   1)
(PID.TID 0000.0001) // RANGE J (Lo:Hi:Step):(   7:  -1:  -1)
(PID.TID 0000.0001) // RANGE K (Lo:Hi:Step):(   1:   1:   1)
(PID.TID 0000.0001) // =======================================================
(PID.TID 0000.0001) K =   1
(PID.TID 0000.0001) //
(PID.TID 0000.0001) // |--J--|*01234567
(PID.TID 0000.0001) //      7 ----+----
(PID.TID 0000.0001) //      6 .........
(PID.TID 0000.0001) //      5 ----+----
(PID.TID 0000.0001) //      4 ----+----
(PID.TID 0000.0001) //      3 ----+----
(PID.TID 0000.0001) //      2 ----+----
(PID.TID 0000.0001) //      1 .........
(PID.TID 0000.0001) //      0 ----+----
(PID.TID 0000.0001) //     -1 ----+----
(PID.TID 0000.0001) // =======================================================
(PID.TID 0000.0001) // END OF FIELD                                          =
(PID.TID 0000.0001) // =======================================================
(PID.TID 0000.0001) 
(PID.TID 0000.0001) // =======================================================
(PID.TID 0000.0001) // Field Model R_low (ini_masks_etc) at iteration          1
(PID.TID 0000.0001) // CMIN =         -5.000000000000000E+03
(PID.TID 0000.0001) // CMAX =         -2.000000000000000E+03
(PID.TID 0000.0001) // CINT =          1.111111111111111E+02
(PID.TID 0000.0001) // SYMBOLS (CMIN->CMAX): -abcdefghijklmnopqrstuvwxyz+
(PID.TID 0000.0001) //                  0.0: .
(PID.TID 0000.0001) // RANGE I (Lo:Hi:Step):(  -1:   7:   1)
(PID.TID 0000.0001) // RANGE J (Lo:Hi:Step):(   7:  -1:  -1)
(PID.TID 0000.0001) // RANGE K (Lo:Hi:Step):(   1:   1:   1)
(PID.TID 0000.0001) // =======================================================
(PID.TID 0000.0001) K =   1
(PID.TID 0000.0001) //
(PID.TID 0000.0001) // |--J--|*01234567
(PID.TID 0000.0001) //      7 ----+----
(PID.TID 0000.0001) //      6 .........
(PID.TID 0000.0001) //      5 ----+----
(PID.TID 0000.0001) //      4 ----+----
(PID.TID 0000.0001) //      3 ----+----
(PID.TID 0000.0001) //      2 ----+----
(PID.TID 0000.0001) //      1 .........
(PID.TID 0000.0001) //      0 ----+----
(PID.TID 0000.0001) //     -1 ----+----
(PID.TID 0000.0001) // =======================================================
(PID.TID 0000.0001) // END OF FIELD                                          =
(PID.TID 0000.0001) // =======================================================
(PID.TID 0000.0001) 
(PID.TID 0000.0001) // =======================================================
(PID.TID 0000.0001) // Field Model Ro_surf (ini_masks_etc) at iteration          1
(PID.TID 0000.0001) // CMIN =          2.273736754432321E-13
(PID.TID 0000.0001) // CMAX =          2.273736754432321E-13
(PID.TID 0000.0001) // CINT =          0.000000000000000E+00
(PID.TID 0000.0001) // SYMBOLS (CMIN->CMAX): -abcdefghijklmnopqrstuvwxyz+
(PID.TID 0000.0001) //                  0.0: .
(PID.TID 0000.0001) // RANGE I (Lo:Hi:Step):(  -1:   7:   1)
(PID.TID 0000.0001) // RANGE J (Lo:Hi:Step):(   7:  -1:  -1)
(PID.TID 0000.0001) // RANGE K (Lo:Hi:Step):(   1:   1:   1)
(PID.TID 0000.0001) // =======================================================
(PID.TID 0000.0001) // =======================================================
(PID.TID 0000.0001) // END OF FIELD                                          =
(PID.TID 0000.0001) // =======================================================
(PID.TID 0000.0001) 
(PID.TID 0000.0001) // =======================================================
(PID.TID 0000.0001) // Field hFacC at iteration          1
(PID.TID 0000.0001) // CMIN =          1.000000000000000E+00
(PID.TID 0000.0001) // CMAX =          1.000000000000000E+00
(PID.TID 0000.0001) // CINT =          0.000000000000000E+00
(PID.TID 0000.0001) // SYMBOLS (CMIN->CMAX): -abcdefghijklmnopqrstuvwxyz+
(PID.TID 0000.0001) //                  0.0: .
(PID.TID 0000.0001) // RANGE I (Lo:Hi:Step):(  -1:   7:   1)
(PID.TID 0000.0001) // RANGE J (Lo:Hi:Step):(   7:  -1:  -1)
(PID.TID 0000.0001) // RANGE K (Lo:Hi:Step):(   1:   1:   1)
(PID.TID 0000.0001) // =======================================================
(PID.TID 0000.0001) // =======================================================
(PID.TID 0000.0001) // END OF FIELD                                          =
(PID.TID 0000.0001) // =======================================================
(PID.TID 0000.0001) 
(PID.TID 0000.0001) // =======================================================
(PID.TID 0000.0001) // Field hFacW at iteration          1
(PID.TID 0000.0001) // CMIN =          1.000000000000000E+00
(PID.TID 0000.0001) // CMAX =          1.000000000000000E+00
(PID.TID 0000.0001) // CINT =          0.000000000000000E+00
(PID.TID 0000.0001) // SYMBOLS (CMIN->CMAX): -abcdefghijklmnopqrstuvwxyz+
(PID.TID 0000.0001) //                  0.0: .
(PID.TID 0000.0001) // RANGE I (Lo:Hi:Step):(  -1:   7:   1)
(PID.TID 0000.0001) // RANGE J (Lo:Hi:Step):(   7:  -1:  -1)
(PID.TID 0000.0001) // RANGE K (Lo:Hi:Step):(   1:   1:   1)
(PID.TID 0000.0001) // =======================================================
(PID.TID 0000.0001) // =======================================================
(PID.TID 0000.0001) // END OF FIELD                                          =
(PID.TID 0000.0001) // =======================================================
(PID.TID 0000.0001) 
(PID.TID 0000.0001) // =======================================================
(PID.TID 0000.0001) // Field hFacS at iteration          1
(PID.TID 0000.0001) // CMIN =          1.000000000000000E+00
(PID.TID 0000.0001) // CMAX =          1.000000000000000E+00
(PID.TID 0000.0001) // CINT =          0.000000000000000E+00
(PID.TID 0000.0001) // SYMBOLS (CMIN->CMAX): -abcdefghijklmnopqrstuvwxyz+
(PID.TID 0000.0001) //                  0.0: .
(PID.TID 0000.0001) // RANGE I (Lo:Hi:Step):(  -1:   7:   1)
(PID.TID 0000.0001) // RANGE J (Lo:Hi:Step):(   7:  -1:  -1)
(PID.TID 0000.0001) // RANGE K (Lo:Hi:Step):(   1:   1:   1)
(PID.TID 0000.0001) // =======================================================
(PID.TID 0000.0001) // =======================================================
(PID.TID 0000.0001) // END OF FIELD                                          =
(PID.TID 0000.0001) // =======================================================
(PID.TID 0000.0001) 
(PID.TID 0000.0001) %MON surfExpanfCori_max           =  -1.0735540000000E-04
(PID.TID 0000.0001) %MON surfExpanfCori_min           =  -1.1783060000000E-04
(PID.TID 0000.0001) %MON surfExpanfCori_mean          =  -1.1259300000000E-04
(PID.TID 0000.0001) %MON surfExpanfCori_sd            =   3.7035424771427E-06
(PID.TID 0000.0001) %MON surfExpanfCoriG_max          =  -1.0866480000000E-04
(PID.TID 0000.0001) %MON surfExpanfCoriG_min          =  -1.1914000000000E-04
(PID.TID 0000.0001) %MON surfExpanfCoriG_mean         =  -1.1390240000000E-04
(PID.TID 0000.0001) %MON surfExpanfCoriG_sd           =   3.7035424771427E-06
(PID.TID 0000.0001) %MON surfExpanfCoriCos_max        =   0.0000000000000E+00
(PID.TID 0000.0001) %MON surfExpanfCoriCos_min        =   0.0000000000000E+00
(PID.TID 0000.0001) %MON surfExpanfCoriCos_mean       =   0.0000000000000E+00
(PID.TID 0000.0001) %MON surfExpanfCoriCos_sd         =   0.0000000000000E+00
(PID.TID 0000.0001) INI_CG2D: CG2D normalisation factor =  1.9999999999999996E-04
(PID.TID 0000.0001) 
                     ctrl_depth_ini: ctrl update R_low,
                                     adding the control vector.
(PID.TID 0000.0001)  MDSREADFIELD: opening file: xx_depth.0000000000.001.001.data
(PID.TID 0000.0001) // =======================================================
(PID.TID 0000.0001) // Field Model Ro_surf (update_masks_etc) at iteration          1
(PID.TID 0000.0001) // CMIN =          2.273736754432321E-13
(PID.TID 0000.0001) // CMAX =          2.273736754432321E-13
(PID.TID 0000.0001) // CINT =          0.000000000000000E+00
(PID.TID 0000.0001) // SYMBOLS (CMIN->CMAX): -abcdefghijklmnopqrstuvwxyz+
(PID.TID 0000.0001) //                  0.0: .
(PID.TID 0000.0001) // RANGE I (Lo:Hi:Step):(  -1:   7:   1)
(PID.TID 0000.0001) // RANGE J (Lo:Hi:Step):(   7:  -1:  -1)
(PID.TID 0000.0001) // RANGE K (Lo:Hi:Step):(   1:   1:   1)
(PID.TID 0000.0001) // =======================================================
(PID.TID 0000.0001) // =======================================================
(PID.TID 0000.0001) // END OF FIELD                                          =
(PID.TID 0000.0001) // =======================================================
(PID.TID 0000.0001) 
(PID.TID 0000.0001) // =======================================================
(PID.TID 0000.0001) // Field hFacC at iteration          1
(PID.TID 0000.0001) // CMIN =          1.000000000000000E+00
(PID.TID 0000.0001) // CMAX =          1.000000000000000E+00
(PID.TID 0000.0001) // CINT =          0.000000000000000E+00
(PID.TID 0000.0001) // SYMBOLS (CMIN->CMAX): -abcdefghijklmnopqrstuvwxyz+
(PID.TID 0000.0001) //                  0.0: .
(PID.TID 0000.0001) // RANGE I (Lo:Hi:Step):(  -1:   7:   1)
(PID.TID 0000.0001) // RANGE J (Lo:Hi:Step):(   7:  -1:  -1)
(PID.TID 0000.0001) // RANGE K (Lo:Hi:Step):(   1:   1:   1)
(PID.TID 0000.0001) // =======================================================
(PID.TID 0000.0001) // =======================================================
(PID.TID 0000.0001) // END OF FIELD                                          =
(PID.TID 0000.0001) // =======================================================
(PID.TID 0000.0001) 
(PID.TID 0000.0001) // =======================================================
(PID.TID 0000.0001) // Field hFacW at iteration          1
(PID.TID 0000.0001) // CMIN =          1.000000000000000E+00
(PID.TID 0000.0001) // CMAX =          1.000000000000000E+00
(PID.TID 0000.0001) // CINT =          0.000000000000000E+00
(PID.TID 0000.0001) // SYMBOLS (CMIN->CMAX): -abcdefghijklmnopqrstuvwxyz+
(PID.TID 0000.0001) //                  0.0: .
(PID.TID 0000.0001) // RANGE I (Lo:Hi:Step):(  -1:   7:   1)
(PID.TID 0000.0001) // RANGE J (Lo:Hi:Step):(   7:  -1:  -1)
(PID.TID 0000.0001) // RANGE K (Lo:Hi:Step):(   1:   1:   1)
(PID.TID 0000.0001) // =======================================================
(PID.TID 0000.0001) // =======================================================
(PID.TID 0000.0001) // END OF FIELD                                          =
(PID.TID 0000.0001) // =======================================================
(PID.TID 0000.0001) 
(PID.TID 0000.0001) // =======================================================
(PID.TID 0000.0001) // Field hFacS at iteration          1
(PID.TID 0000.0001) // CMIN =          1.000000000000000E+00
(PID.TID 0000.0001) // CMAX =          1.000000000000000E+00
(PID.TID 0000.0001) // CINT =          0.000000000000000E+00
(PID.TID 0000.0001) // SYMBOLS (CMIN->CMAX): -abcdefghijklmnopqrstuvwxyz+
(PID.TID 0000.0001) //                  0.0: .
(PID.TID 0000.0001) // RANGE I (Lo:Hi:Step):(  -1:   7:   1)
(PID.TID 0000.0001) // RANGE J (Lo:Hi:Step):(   7:  -1:  -1)
(PID.TID 0000.0001) // RANGE K (Lo:Hi:Step):(   1:   1:   1)
(PID.TID 0000.0001) // =======================================================
(PID.TID 0000.0001) // =======================================================
(PID.TID 0000.0001) // END OF FIELD                                          =
(PID.TID 0000.0001) // =======================================================
(PID.TID 0000.0001) 
(PID.TID 0000.0001) // =======================================================
(PID.TID 0000.0001) // Field Initial Temperature at iteration          1
(PID.TID 0000.0001) // CMIN =          4.000000000000000E+00
(PID.TID 0000.0001) // CMAX =          4.000000000000000E+00
(PID.TID 0000.0001) // CINT =          0.000000000000000E+00
(PID.TID 0000.0001) // SYMBOLS (CMIN->CMAX): -abcdefghijklmnopqrstuvwxyz+
(PID.TID 0000.0001) //                  0.0: .
(PID.TID 0000.0001) // RANGE I (Lo:Hi:Step):(   1:   5:   1)
(PID.TID 0000.0001) // RANGE J (Lo:Hi:Step):(   5:   1:  -1)
(PID.TID 0000.0001) // RANGE K (Lo:Hi:Step):(   1:   1:   1)
(PID.TID 0000.0001) // =======================================================
(PID.TID 0000.0001) // =======================================================
(PID.TID 0000.0001) // END OF FIELD                                          =
(PID.TID 0000.0001) // =======================================================
(PID.TID 0000.0001) 
(PID.TID 0000.0001) // =======================================================
(PID.TID 0000.0001) // Field Initial Salinity at iteration          1
(PID.TID 0000.0001) // CMIN =          3.500000000000000E+01
(PID.TID 0000.0001) // CMAX =          3.500000000000000E+01
(PID.TID 0000.0001) // CINT =          0.000000000000000E+00
(PID.TID 0000.0001) // SYMBOLS (CMIN->CMAX): -abcdefghijklmnopqrstuvwxyz+
(PID.TID 0000.0001) //                  0.0: .
(PID.TID 0000.0001) // RANGE I (Lo:Hi:Step):(   1:   5:   1)
(PID.TID 0000.0001) // RANGE J (Lo:Hi:Step):(   5:   1:  -1)
(PID.TID 0000.0001) // RANGE K (Lo:Hi:Step):(   1:   1:   1)
(PID.TID 0000.0001) // =======================================================
(PID.TID 0000.0001) // =======================================================
(PID.TID 0000.0001) // END OF FIELD                                          =
(PID.TID 0000.0001) // =======================================================
(PID.TID 0000.0001) 
(PID.TID 0000.0001) Start initial hydrostatic pressure computation
(PID.TID 0000.0001) Pressure is predetermined for buoyancyRelation OCEANIC
(PID.TID 0000.0001) 
(PID.TID 0000.0001)  MDSREADFIELD: opening global file: windx.sin_y
(PID.TID 0000.0001) // =======================================================
(PID.TID 0000.0001) // Model current state
(PID.TID 0000.0001) // =======================================================
(PID.TID 0000.0001) 
 cg2d: Sum(rhs),rhsMax =   0.00000000000000E+00  0.00000000000000E+00
 cg2d: Sum(rhs),rhsMax =   4.68375338513738E-16  2.62483626325265E-03
 cg2d: Sum(rhs),rhsMax =   3.76434994286967E-16  5.13362633360820E-03
 cg2d: Sum(rhs),rhsMax =   2.51534904016637E-16  7.16168459280808E-03
 cg2d: Sum(rhs),rhsMax =   6.80878964320897E-16  9.29466755986014E-03
 cg2d: Sum(rhs),rhsMax =   9.26342336171615E-16  1.15304356797511E-02
 cg2d: Sum(rhs),rhsMax =   6.98659879949659E-16  1.37809802353870E-02
 cg2d: Sum(rhs),rhsMax =   9.71445146547012E-16  1.60011247469289E-02
 cg2d: Sum(rhs),rhsMax =   5.20417042793042E-16  1.82027337912225E-02
 cg2d: Sum(rhs),rhsMax =   6.93889390390723E-17  2.04493560871551E-02
 cg2d: Sum(rhs),rhsMax =   2.08166817117217E-16  2.25706027739098E-02
 cg2d: Sum(rhs),rhsMax =   6.24500451351651E-16  2.45301657162020E-02
 cg2d: Sum(rhs),rhsMax =   9.15933995315754E-16  2.63097944374927E-02
 cg2d: Sum(rhs),rhsMax =   9.71445146547012E-17  2.79110497217142E-02
 cg2d: Sum(rhs),rhsMax =   1.38777878078145E-17  2.93538602383664E-02
 cg2d: Sum(rhs),rhsMax =   3.33066907387547E-16  3.06720439109423E-02
 cg2d: Sum(rhs),rhsMax =  -4.99600361081320E-16  3.19067816610536E-02
 cg2d: Sum(rhs),rhsMax =  -4.16333634234434E-17  3.30992667639499E-02
 cg2d: Sum(rhs),rhsMax =  -6.31439345255558E-16  3.42837432842201E-02
 cg2d: Sum(rhs),rhsMax =  -1.17961196366423E-16  3.54819650782976E-02
 cg2d: Sum(rhs),rhsMax =  -4.02455846426619E-16  3.66998058458972E-02
 cg2d: Sum(rhs),rhsMax =  -3.53883589099269E-16  3.79264045504640E-02
 cg2d: Sum(rhs),rhsMax =  -1.45716771982052E-16  3.91358858388561E-02
 cg2d: Sum(rhs),rhsMax =  -1.80411241501588E-16  4.02913639261801E-02
 cg2d: Sum(rhs),rhsMax =  -8.18789480661053E-16  4.13506294670109E-02
 cg2d: Sum(rhs),rhsMax =  -2.22044604925031E-16  4.22726606684742E-02
 cg2d: Sum(rhs),rhsMax =  -2.08166817117217E-16  4.30239435265244E-02
 cg2d: Sum(rhs),rhsMax =  -3.88578058618805E-16  4.35835862263463E-02
 cg2d: Sum(rhs),rhsMax =  -2.08166817117217E-16  4.39463978549371E-02
 cg2d: Sum(rhs),rhsMax =   1.38777878078145E-16  4.41234514687522E-02
 cg2d: Sum(rhs),rhsMax =   3.74700270810990E-16  4.41400962296584E-02
 cg2d: Sum(rhs),rhsMax =   5.55111512312578E-16  4.40318241364020E-02
 cg2d: Sum(rhs),rhsMax =   1.66533453693773E-16  4.38387397480459E-02
 cg2d: Sum(rhs),rhsMax =  -4.57966997657877E-16  4.54379564434545E-02
 cg2d: Sum(rhs),rhsMax =  -6.52256026967279E-16  4.77259345831477E-02
 cg2d: Sum(rhs),rhsMax =  -4.16333634234434E-16  4.99949947407192E-02
 cg2d: Sum(rhs),rhsMax =  -1.16573417585641E-15  5.22073351048866E-02
 cg2d: Sum(rhs),rhsMax =  -2.22044604925031E-16  5.43317160002372E-02
 cg2d: Sum(rhs),rhsMax =  -1.24900090270330E-16  5.63476439505484E-02
 cg2d: Sum(rhs),rhsMax =  -1.94289029309402E-16  5.82478252901776E-02
 cg2d: Sum(rhs),rhsMax =   1.66533453693773E-16  6.00385233032928E-02
 cg2d: Sum(rhs),rhsMax =  -3.05311331771918E-16  6.17377934916124E-02
 cg2d: Sum(rhs),rhsMax =   1.66533453693773E-16  6.33719188831750E-02
 cg2d: Sum(rhs),rhsMax =  -5.55111512312578E-17  6.49706567783974E-02
 cg2d: Sum(rhs),rhsMax =  -5.27355936696949E-16  6.65620861371268E-02
 cg2d: Sum(rhs),rhsMax =  -6.93889390390723E-16  6.81678818718649E-02
 cg2d: Sum(rhs),rhsMax =  -1.24900090270330E-15  6.97997402975090E-02
 cg2d: Sum(rhs),rhsMax =  -1.41553435639707E-15  7.14574674476168E-02
 cg2d: Sum(rhs),rhsMax =  -1.58206781009085E-15  7.31289635194147E-02
 cg2d: Sum(rhs),rhsMax =  -1.66533453693773E-15  7.47920407054669E-02
 cg2d: Sum(rhs),rhsMax =  -1.74860126378462E-15  7.64177411555024E-02
 cg2d: Sum(rhs),rhsMax =  -2.16493489801906E-15  7.79746106013342E-02
 cg2d: Sum(rhs),rhsMax =  -1.66533453693773E-15  7.94332555833646E-02
 cg2d: Sum(rhs),rhsMax =  -1.63757896132211E-15  8.07704834293989E-02
 cg2d: Sum(rhs),rhsMax =  -1.52655665885959E-15  8.19723990199665E-02
 cg2d: Sum(rhs),rhsMax =  -1.02695629777827E-15  8.30360026830601E-02
 cg2d: Sum(rhs),rhsMax =  -6.80011602582908E-16  8.39690756684005E-02
 cg2d: Sum(rhs),rhsMax =  -5.13478148889135E-16  8.47884155050402E-02
 cg2d: Sum(rhs),rhsMax =  -1.94289029309402E-16  8.55167463512555E-02
 cg2d: Sum(rhs),rhsMax =  -1.80411241501588E-16  8.61788332411815E-02
 cg2d: Sum(rhs),rhsMax =  -1.38777878078145E-17  8.67974392961796E-02
 cg2d: Sum(rhs),rhsMax =   6.24500451351651E-16  8.73897659407166E-02
 cg2d: Sum(rhs),rhsMax =   8.04911692853238E-16  8.79649137638420E-02
 cg2d: Sum(rhs),rhsMax =   7.63278329429795E-16  8.85227196936137E-02
 cg2d: Sum(rhs),rhsMax =   6.10622663543836E-16  8.90540992000183E-02
 cg2d: Sum(rhs),rhsMax =   3.74700270810990E-16  8.95427877954063E-02
 cg2d: Sum(rhs),rhsMax =   5.68989300120393E-16  8.99681683609922E-02
 cg2d: Sum(rhs),rhsMax =   7.42461647718073E-16  9.03087171850266E-02
 cg2d: Sum(rhs),rhsMax =   8.53483950180589E-16  9.05455210781511E-02
 cg2d: Sum(rhs),rhsMax =   9.36750677027476E-16  9.06653202817038E-02
 cg2d: Sum(rhs),rhsMax =   5.75928194024300E-16  9.06626164589074E-02
 cg2d: Sum(rhs),rhsMax =   6.86950496486816E-16  9.05405397431568E-02
 cg2d: Sum(rhs),rhsMax =   4.05925293378573E-16  9.03103701417029E-02
 cg2d: Sum(rhs),rhsMax =  -1.04083408558608E-17  8.99898242274081E-02
 cg2d: Sum(rhs),rhsMax =   1.26634813746307E-16  8.96004120364414E-02
 cg2d: Sum(rhs),rhsMax =   1.84748050191530E-16  8.91643088347430E-02
 cg2d: Sum(rhs),rhsMax =   1.21430643318376E-17  8.87012494829737E-02
 cg2d: Sum(rhs),rhsMax =  -9.02056207507940E-17  8.82259316756417E-02
 cg2d: Sum(rhs),rhsMax =  -5.89805981832114E-17  8.77463159036157E-02
 cg2d: Sum(rhs),rhsMax =  -1.80411241501588E-16  8.72630547578718E-02
 cg2d: Sum(rhs),rhsMax =  -2.91433543964104E-16  8.67700998922807E-02
 cg2d: Sum(rhs),rhsMax =  -5.48172618408671E-16  8.62563513524465E-02
 cg2d: Sum(rhs),rhsMax =  -3.92047505570758E-16  8.57080582095699E-02
 cg2d: Sum(rhs),rhsMax =  -8.15320033709099E-17  8.51115729176178E-02
 cg2d: Sum(rhs),rhsMax =  -1.23165366794353E-16  8.44560183072814E-02
 cg2d: Sum(rhs),rhsMax =   3.78169717762944E-16  8.37354506308109E-02
 cg2d: Sum(rhs),rhsMax =   5.03069808033274E-17  8.29501901320851E-02
 cg2d: Sum(rhs),rhsMax =  -9.84455572616838E-17  8.21071284256575E-02
 cg2d: Sum(rhs),rhsMax =  -6.76542155630955E-17  8.12189876975221E-02
 cg2d: Sum(rhs),rhsMax =  -2.69749500514394E-16  8.03026735601985E-02
 cg2d: Sum(rhs),rhsMax =  -3.20923843055709E-16  7.93770039758005E-02
 cg2d: Sum(rhs),rhsMax =  -5.96744875736022E-16  7.84601882554019E-02
 cg2d: Sum(rhs),rhsMax =  -5.56846235788555E-16  7.75674589250678E-02
 cg2d: Sum(rhs),rhsMax =  -2.42861286636753E-17  7.67092227067841E-02
 cg2d: Sum(rhs),rhsMax =   3.43475248243408E-16  7.58900036665366E-02
 cg2d: Sum(rhs),rhsMax =   7.07767178198537E-16  7.51083191866450E-02
 cg2d: Sum(rhs),rhsMax =   4.23272528138341E-16  7.43574803023902E-02
 cg2d: Sum(rhs),rhsMax =   4.37150315946155E-16  7.36271655782089E-02
 cg2d: Sum(rhs),rhsMax =   6.31439345255558E-16  7.29055030912946E-02
 cg2d: Sum(rhs),rhsMax =   7.14706072102445E-16  7.21813242235991E-02
 --> objf_test(bi,bj)   = -0.849803597943908E+00
 --> objf_tracer(bi,bj) =  0.000000000000000E+00
 --> objf_atl(bi,bj)    =  0.000000000000000E+00
  local fc = -0.849803597943908E+00
 global fc = -0.849803597943908E+00
 ph-grd  ierr ---------------------------
 ph-grd  ierr =  -3, icomp =  23, ichknum =  23
(PID.TID 0000.0001)  MDSREADFIELD: opening global file: walls.bigRidge
(PID.TID 0000.0001) // =======================================================
(PID.TID 0000.0001) // Field Bottom depths (ini_depths) at iteration          1
(PID.TID 0000.0001) // CMIN =         -5.000000000000000E+03
(PID.TID 0000.0001) // CMAX =         -2.000000000000000E+03
(PID.TID 0000.0001) // CINT =          1.111111111111111E+02
(PID.TID 0000.0001) // SYMBOLS (CMIN->CMAX): -abcdefghijklmnopqrstuvwxyz+
(PID.TID 0000.0001) //                  0.0: .
(PID.TID 0000.0001) // RANGE I (Lo:Hi:Step):(  -1:   7:   1)
(PID.TID 0000.0001) // RANGE J (Lo:Hi:Step):(   7:  -1:  -1)
(PID.TID 0000.0001) // RANGE K (Lo:Hi:Step):(   1:   1:   1)
(PID.TID 0000.0001) // =======================================================
(PID.TID 0000.0001) K =   1
(PID.TID 0000.0001) //
(PID.TID 0000.0001) // |--J--|*01234567
(PID.TID 0000.0001) //      7 ----+----
(PID.TID 0000.0001) //      6 .........
(PID.TID 0000.0001) //      5 ----+----
(PID.TID 0000.0001) //      4 ----+----
(PID.TID 0000.0001) //      3 ----+----
(PID.TID 0000.0001) //      2 ----+----
(PID.TID 0000.0001) //      1 .........
(PID.TID 0000.0001) //      0 ----+----
(PID.TID 0000.0001) //     -1 ----+----
(PID.TID 0000.0001) // =======================================================
(PID.TID 0000.0001) // END OF FIELD                                          =
(PID.TID 0000.0001) // =======================================================
(PID.TID 0000.0001) 
(PID.TID 0000.0001) // =======================================================
(PID.TID 0000.0001) // Field Model R_low (ini_masks_etc) at iteration          1
(PID.TID 0000.0001) // CMIN =         -5.000000000000000E+03
(PID.TID 0000.0001) // CMAX =         -2.000000000000000E+03
(PID.TID 0000.0001) // CINT =          1.111111111111111E+02
(PID.TID 0000.0001) // SYMBOLS (CMIN->CMAX): -abcdefghijklmnopqrstuvwxyz+
(PID.TID 0000.0001) //                  0.0: .
(PID.TID 0000.0001) // RANGE I (Lo:Hi:Step):(  -1:   7:   1)
(PID.TID 0000.0001) // RANGE J (Lo:Hi:Step):(   7:  -1:  -1)
(PID.TID 0000.0001) // RANGE K (Lo:Hi:Step):(   1:   1:   1)
(PID.TID 0000.0001) // =======================================================
(PID.TID 0000.0001) K =   1
(PID.TID 0000.0001) //
(PID.TID 0000.0001) // |--J--|*01234567
(PID.TID 0000.0001) //      7 ----+----
(PID.TID 0000.0001) //      6 .........
(PID.TID 0000.0001) //      5 ----+----
(PID.TID 0000.0001) //      4 ----+----
(PID.TID 0000.0001) //      3 ----+----
(PID.TID 0000.0001) //      2 ----+----
(PID.TID 0000.0001) //      1 .........
(PID.TID 0000.0001) //      0 ----+----
(PID.TID 0000.0001) //     -1 ----+----
(PID.TID 0000.0001) // =======================================================
(PID.TID 0000.0001) // END OF FIELD                                          =
(PID.TID 0000.0001) // =======================================================
(PID.TID 0000.0001) 
(PID.TID 0000.0001) // =======================================================
(PID.TID 0000.0001) // Field Model Ro_surf (ini_masks_etc) at iteration          1
(PID.TID 0000.0001) // CMIN =          2.273736754432321E-13
(PID.TID 0000.0001) // CMAX =          2.273736754432321E-13
(PID.TID 0000.0001) // CINT =          0.000000000000000E+00
(PID.TID 0000.0001) // SYMBOLS (CMIN->CMAX): -abcdefghijklmnopqrstuvwxyz+
(PID.TID 0000.0001) //                  0.0: .
(PID.TID 0000.0001) // RANGE I (Lo:Hi:Step):(  -1:   7:   1)
(PID.TID 0000.0001) // RANGE J (Lo:Hi:Step):(   7:  -1:  -1)
(PID.TID 0000.0001) // RANGE K (Lo:Hi:Step):(   1:   1:   1)
(PID.TID 0000.0001) // =======================================================
(PID.TID 0000.0001) // =======================================================
(PID.TID 0000.0001) // END OF FIELD                                          =
(PID.TID 0000.0001) // =======================================================
(PID.TID 0000.0001) 
(PID.TID 0000.0001) // =======================================================
(PID.TID 0000.0001) // Field hFacC at iteration          1
(PID.TID 0000.0001) // CMIN =          1.000000000000000E+00
(PID.TID 0000.0001) // CMAX =          1.000000000000000E+00
(PID.TID 0000.0001) // CINT =          0.000000000000000E+00
(PID.TID 0000.0001) // SYMBOLS (CMIN->CMAX): -abcdefghijklmnopqrstuvwxyz+
(PID.TID 0000.0001) //                  0.0: .
(PID.TID 0000.0001) // RANGE I (Lo:Hi:Step):(  -1:   7:   1)
(PID.TID 0000.0001) // RANGE J (Lo:Hi:Step):(   7:  -1:  -1)
(PID.TID 0000.0001) // RANGE K (Lo:Hi:Step):(   1:   1:   1)
(PID.TID 0000.0001) // =======================================================
(PID.TID 0000.0001) // =======================================================
(PID.TID 0000.0001) // END OF FIELD                                          =
(PID.TID 0000.0001) // =======================================================
(PID.TID 0000.0001) 
(PID.TID 0000.0001) // =======================================================
(PID.TID 0000.0001) // Field hFacW at iteration          1
(PID.TID 0000.0001) // CMIN =          1.000000000000000E+00
(PID.TID 0000.0001) // CMAX =          1.000000000000000E+00
(PID.TID 0000.0001) // CINT =          0.000000000000000E+00
(PID.TID 0000.0001) // SYMBOLS (CMIN->CMAX): -abcdefghijklmnopqrstuvwxyz+
(PID.TID 0000.0001) //                  0.0: .
(PID.TID 0000.0001) // RANGE I (Lo:Hi:Step):(  -1:   7:   1)
(PID.TID 0000.0001) // RANGE J (Lo:Hi:Step):(   7:  -1:  -1)
(PID.TID 0000.0001) // RANGE K (Lo:Hi:Step):(   1:   1:   1)
(PID.TID 0000.0001) // =======================================================
(PID.TID 0000.0001) // =======================================================
(PID.TID 0000.0001) // END OF FIELD                                          =
(PID.TID 0000.0001) // =======================================================
(PID.TID 0000.0001) 
(PID.TID 0000.0001) // =======================================================
(PID.TID 0000.0001) // Field hFacS at iteration          1
(PID.TID 0000.0001) // CMIN =          1.000000000000000E+00
(PID.TID 0000.0001) // CMAX =          1.000000000000000E+00
(PID.TID 0000.0001) // CINT =          0.000000000000000E+00
(PID.TID 0000.0001) // SYMBOLS (CMIN->CMAX): -abcdefghijklmnopqrstuvwxyz+
(PID.TID 0000.0001) //                  0.0: .
(PID.TID 0000.0001) // RANGE I (Lo:Hi:Step):(  -1:   7:   1)
(PID.TID 0000.0001) // RANGE J (Lo:Hi:Step):(   7:  -1:  -1)
(PID.TID 0000.0001) // RANGE K (Lo:Hi:Step):(   1:   1:   1)
(PID.TID 0000.0001) // =======================================================
(PID.TID 0000.0001) // =======================================================
(PID.TID 0000.0001) // END OF FIELD                                          =
(PID.TID 0000.0001) // =======================================================
(PID.TID 0000.0001) 
(PID.TID 0000.0001) %MON surfExpanfCori_max           =  -1.0735540000000E-04
(PID.TID 0000.0001) %MON surfExpanfCori_min           =  -1.1783060000000E-04
(PID.TID 0000.0001) %MON surfExpanfCori_mean          =  -1.1259300000000E-04
(PID.TID 0000.0001) %MON surfExpanfCori_sd            =   3.7035424771427E-06
(PID.TID 0000.0001) %MON surfExpanfCoriG_max          =  -1.0866480000000E-04
(PID.TID 0000.0001) %MON surfExpanfCoriG_min          =  -1.1914000000000E-04
(PID.TID 0000.0001) %MON surfExpanfCoriG_mean         =  -1.1390240000000E-04
(PID.TID 0000.0001) %MON surfExpanfCoriG_sd           =   3.7035424771427E-06
(PID.TID 0000.0001) %MON surfExpanfCoriCos_max        =   0.0000000000000E+00
(PID.TID 0000.0001) %MON surfExpanfCoriCos_min        =   0.0000000000000E+00
(PID.TID 0000.0001) %MON surfExpanfCoriCos_mean       =   0.0000000000000E+00
(PID.TID 0000.0001) %MON surfExpanfCoriCos_sd         =   0.0000000000000E+00
(PID.TID 0000.0001) INI_CG2D: CG2D normalisation factor =  1.9999999999999996E-04
(PID.TID 0000.0001) 
                     ctrl_depth_ini: ctrl update R_low,
                                     adding the control vector.
(PID.TID 0000.0001)  MDSREADFIELD: opening file: xx_depth.0000000000.001.001.data
(PID.TID 0000.0001) // =======================================================
(PID.TID 0000.0001) // Field Model Ro_surf (update_masks_etc) at iteration          1
(PID.TID 0000.0001) // CMIN =          2.273736754432321E-13
(PID.TID 0000.0001) // CMAX =          2.273736754432321E-13
(PID.TID 0000.0001) // CINT =          0.000000000000000E+00
(PID.TID 0000.0001) // SYMBOLS (CMIN->CMAX): -abcdefghijklmnopqrstuvwxyz+
(PID.TID 0000.0001) //                  0.0: .
(PID.TID 0000.0001) // RANGE I (Lo:Hi:Step):(  -1:   7:   1)
(PID.TID 0000.0001) // RANGE J (Lo:Hi:Step):(   7:  -1:  -1)
(PID.TID 0000.0001) // RANGE K (Lo:Hi:Step):(   1:   1:   1)
(PID.TID 0000.0001) // =======================================================
(PID.TID 0000.0001) // =======================================================
(PID.TID 0000.0001) // END OF FIELD                                          =
(PID.TID 0000.0001) // =======================================================
(PID.TID 0000.0001) 
(PID.TID 0000.0001) // =======================================================
(PID.TID 0000.0001) // Field hFacC at iteration          1
(PID.TID 0000.0001) // CMIN =          1.000000000000000E+00
(PID.TID 0000.0001) // CMAX =          1.000000000000000E+00
(PID.TID 0000.0001) // CINT =          0.000000000000000E+00
(PID.TID 0000.0001) // SYMBOLS (CMIN->CMAX): -abcdefghijklmnopqrstuvwxyz+
(PID.TID 0000.0001) //                  0.0: .
(PID.TID 0000.0001) // RANGE I (Lo:Hi:Step):(  -1:   7:   1)
(PID.TID 0000.0001) // RANGE J (Lo:Hi:Step):(   7:  -1:  -1)
(PID.TID 0000.0001) // RANGE K (Lo:Hi:Step):(   1:   1:   1)
(PID.TID 0000.0001) // =======================================================
(PID.TID 0000.0001) // =======================================================
(PID.TID 0000.0001) // END OF FIELD                                          =
(PID.TID 0000.0001) // =======================================================
(PID.TID 0000.0001) 
(PID.TID 0000.0001) // =======================================================
(PID.TID 0000.0001) // Field hFacW at iteration          1
(PID.TID 0000.0001) // CMIN =          1.000000000000000E+00
(PID.TID 0000.0001) // CMAX =          1.000000000000000E+00
(PID.TID 0000.0001) // CINT =          0.000000000000000E+00
(PID.TID 0000.0001) // SYMBOLS (CMIN->CMAX): -abcdefghijklmnopqrstuvwxyz+
(PID.TID 0000.0001) //                  0.0: .
(PID.TID 0000.0001) // RANGE I (Lo:Hi:Step):(  -1:   7:   1)
(PID.TID 0000.0001) // RANGE J (Lo:Hi:Step):(   7:  -1:  -1)
(PID.TID 0000.0001) // RANGE K (Lo:Hi:Step):(   1:   1:   1)
(PID.TID 0000.0001) // =======================================================
(PID.TID 0000.0001) // =======================================================
(PID.TID 0000.0001) // END OF FIELD                                          =
(PID.TID 0000.0001) // =======================================================
(PID.TID 0000.0001) 
(PID.TID 0000.0001) // =======================================================
(PID.TID 0000.0001) // Field hFacS at iteration          1
(PID.TID 0000.0001) // CMIN =          1.000000000000000E+00
(PID.TID 0000.0001) // CMAX =          1.000000000000000E+00
(PID.TID 0000.0001) // CINT =          0.000000000000000E+00
(PID.TID 0000.0001) // SYMBOLS (CMIN->CMAX): -abcdefghijklmnopqrstuvwxyz+
(PID.TID 0000.0001) //                  0.0: .
(PID.TID 0000.0001) // RANGE I (Lo:Hi:Step):(  -1:   7:   1)
(PID.TID 0000.0001) // RANGE J (Lo:Hi:Step):(   7:  -1:  -1)
(PID.TID 0000.0001) // RANGE K (Lo:Hi:Step):(   1:   1:   1)
(PID.TID 0000.0001) // =======================================================
(PID.TID 0000.0001) // =======================================================
(PID.TID 0000.0001) // END OF FIELD                                          =
(PID.TID 0000.0001) // =======================================================
(PID.TID 0000.0001) 
(PID.TID 0000.0001) // =======================================================
(PID.TID 0000.0001) // Field Initial Temperature at iteration          1
(PID.TID 0000.0001) // CMIN =          4.000000000000000E+00
(PID.TID 0000.0001) // CMAX =          4.000000000000000E+00
(PID.TID 0000.0001) // CINT =          0.000000000000000E+00
(PID.TID 0000.0001) // SYMBOLS (CMIN->CMAX): -abcdefghijklmnopqrstuvwxyz+
(PID.TID 0000.0001) //                  0.0: .
(PID.TID 0000.0001) // RANGE I (Lo:Hi:Step):(   1:   5:   1)
(PID.TID 0000.0001) // RANGE J (Lo:Hi:Step):(   5:   1:  -1)
(PID.TID 0000.0001) // RANGE K (Lo:Hi:Step):(   1:   1:   1)
(PID.TID 0000.0001) // =======================================================
(PID.TID 0000.0001) // =======================================================
(PID.TID 0000.0001) // END OF FIELD                                          =
(PID.TID 0000.0001) // =======================================================
(PID.TID 0000.0001) 
(PID.TID 0000.0001) // =======================================================
(PID.TID 0000.0001) // Field Initial Salinity at iteration          1
(PID.TID 0000.0001) // CMIN =          3.500000000000000E+01
(PID.TID 0000.0001) // CMAX =          3.500000000000000E+01
(PID.TID 0000.0001) // CINT =          0.000000000000000E+00
(PID.TID 0000.0001) // SYMBOLS (CMIN->CMAX): -abcdefghijklmnopqrstuvwxyz+
(PID.TID 0000.0001) //                  0.0: .
(PID.TID 0000.0001) // RANGE I (Lo:Hi:Step):(   1:   5:   1)
(PID.TID 0000.0001) // RANGE J (Lo:Hi:Step):(   5:   1:  -1)
(PID.TID 0000.0001) // RANGE K (Lo:Hi:Step):(   1:   1:   1)
(PID.TID 0000.0001) // =======================================================
(PID.TID 0000.0001) // =======================================================
(PID.TID 0000.0001) // END OF FIELD                                          =
(PID.TID 0000.0001) // =======================================================
(PID.TID 0000.0001) 
(PID.TID 0000.0001) Start initial hydrostatic pressure computation
(PID.TID 0000.0001) Pressure is predetermined for buoyancyRelation OCEANIC
(PID.TID 0000.0001) 
(PID.TID 0000.0001)  MDSREADFIELD: opening global file: windx.sin_y
(PID.TID 0000.0001) // =======================================================
(PID.TID 0000.0001) // Model current state
(PID.TID 0000.0001) // =======================================================
(PID.TID 0000.0001) 
 cg2d: Sum(rhs),rhsMax =   0.00000000000000E+00  0.00000000000000E+00
 cg2d: Sum(rhs),rhsMax =   4.68375338513738E-16  2.62483626325265E-03
 cg2d: Sum(rhs),rhsMax =   3.76434994286967E-16  5.13362633360820E-03
 cg2d: Sum(rhs),rhsMax =   2.51534904016637E-16  7.16168459280808E-03
 cg2d: Sum(rhs),rhsMax =   6.80878964320897E-16  9.29466755986014E-03
 cg2d: Sum(rhs),rhsMax =   9.26342336171615E-16  1.15304356797511E-02
 cg2d: Sum(rhs),rhsMax =   6.98659879949659E-16  1.37809802353870E-02
 cg2d: Sum(rhs),rhsMax =   9.71445146547012E-16  1.60011247469289E-02
 cg2d: Sum(rhs),rhsMax =   5.20417042793042E-16  1.82027337912225E-02
 cg2d: Sum(rhs),rhsMax =   6.93889390390723E-17  2.04493560871551E-02
 cg2d: Sum(rhs),rhsMax =   2.08166817117217E-16  2.25706027739098E-02
 cg2d: Sum(rhs),rhsMax =   6.24500451351651E-16  2.45301657162020E-02
 cg2d: Sum(rhs),rhsMax =   9.15933995315754E-16  2.63097944374927E-02
 cg2d: Sum(rhs),rhsMax =   9.71445146547012E-17  2.79110497217142E-02
 cg2d: Sum(rhs),rhsMax =   1.38777878078145E-17  2.93538602383664E-02
 cg2d: Sum(rhs),rhsMax =   3.33066907387547E-16  3.06720439109423E-02
 cg2d: Sum(rhs),rhsMax =  -4.99600361081320E-16  3.19067816610536E-02
 cg2d: Sum(rhs),rhsMax =  -4.16333634234434E-17  3.30992667639499E-02
 cg2d: Sum(rhs),rhsMax =  -6.31439345255558E-16  3.42837432842201E-02
 cg2d: Sum(rhs),rhsMax =  -1.17961196366423E-16  3.54819650782976E-02
 cg2d: Sum(rhs),rhsMax =  -4.02455846426619E-16  3.66998058458972E-02
 cg2d: Sum(rhs),rhsMax =  -3.53883589099269E-16  3.79264045504640E-02
 cg2d: Sum(rhs),rhsMax =  -1.45716771982052E-16  3.91358858388561E-02
 cg2d: Sum(rhs),rhsMax =  -1.80411241501588E-16  4.02913639261801E-02
 cg2d: Sum(rhs),rhsMax =  -8.18789480661053E-16  4.13506294670109E-02
 cg2d: Sum(rhs),rhsMax =  -2.22044604925031E-16  4.22726606684742E-02
 cg2d: Sum(rhs),rhsMax =  -2.08166817117217E-16  4.30239435265244E-02
 cg2d: Sum(rhs),rhsMax =  -3.88578058618805E-16  4.35835862263463E-02
 cg2d: Sum(rhs),rhsMax =  -2.08166817117217E-16  4.39463978549371E-02
 cg2d: Sum(rhs),rhsMax =   1.38777878078145E-16  4.41234514687522E-02
 cg2d: Sum(rhs),rhsMax =   3.74700270810990E-16  4.41400962296584E-02
 cg2d: Sum(rhs),rhsMax =   5.55111512312578E-16  4.40318241364020E-02
 cg2d: Sum(rhs),rhsMax =   1.66533453693773E-16  4.38387397480459E-02
 cg2d: Sum(rhs),rhsMax =  -4.57966997657877E-16  4.54379564434545E-02
 cg2d: Sum(rhs),rhsMax =  -6.52256026967279E-16  4.77259345831477E-02
 cg2d: Sum(rhs),rhsMax =  -4.16333634234434E-16  4.99949947407192E-02
 cg2d: Sum(rhs),rhsMax =  -1.16573417585641E-15  5.22073351048866E-02
 cg2d: Sum(rhs),rhsMax =  -2.22044604925031E-16  5.43317160002372E-02
 cg2d: Sum(rhs),rhsMax =  -1.24900090270330E-16  5.63476439505484E-02
 cg2d: Sum(rhs),rhsMax =  -1.94289029309402E-16  5.82478252901776E-02
 cg2d: Sum(rhs),rhsMax =   1.66533453693773E-16  6.00385233032928E-02
 cg2d: Sum(rhs),rhsMax =  -3.05311331771918E-16  6.17377934916124E-02
 cg2d: Sum(rhs),rhsMax =   1.66533453693773E-16  6.33719188831750E-02
 cg2d: Sum(rhs),rhsMax =  -5.55111512312578E-17  6.49706567783974E-02
 cg2d: Sum(rhs),rhsMax =  -5.27355936696949E-16  6.65620861371268E-02
 cg2d: Sum(rhs),rhsMax =  -6.93889390390723E-16  6.81678818718649E-02
 cg2d: Sum(rhs),rhsMax =  -1.24900090270330E-15  6.97997402975090E-02
 cg2d: Sum(rhs),rhsMax =  -1.41553435639707E-15  7.14574674476168E-02
 cg2d: Sum(rhs),rhsMax =  -1.58206781009085E-15  7.31289635194147E-02
 cg2d: Sum(rhs),rhsMax =  -1.66533453693773E-15  7.47920407054669E-02
 cg2d: Sum(rhs),rhsMax =  -1.74860126378462E-15  7.64177411555024E-02
 cg2d: Sum(rhs),rhsMax =  -2.16493489801906E-15  7.79746106013342E-02
 cg2d: Sum(rhs),rhsMax =  -1.66533453693773E-15  7.94332555833646E-02
 cg2d: Sum(rhs),rhsMax =  -1.63757896132211E-15  8.07704834293989E-02
 cg2d: Sum(rhs),rhsMax =  -1.52655665885959E-15  8.19723990199665E-02
 cg2d: Sum(rhs),rhsMax =  -1.02695629777827E-15  8.30360026830601E-02
 cg2d: Sum(rhs),rhsMax =  -6.80011602582908E-16  8.39690756684005E-02
 cg2d: Sum(rhs),rhsMax =  -5.13478148889135E-16  8.47884155050402E-02
 cg2d: Sum(rhs),rhsMax =  -1.94289029309402E-16  8.55167463512555E-02
 cg2d: Sum(rhs),rhsMax =  -1.80411241501588E-16  8.61788332411815E-02
 cg2d: Sum(rhs),rhsMax =  -1.38777878078145E-17  8.67974392961796E-02
 cg2d: Sum(rhs),rhsMax =   6.24500451351651E-16  8.73897659407166E-02
 cg2d: Sum(rhs),rhsMax =   8.04911692853238E-16  8.79649137638420E-02
 cg2d: Sum(rhs),rhsMax =   7.63278329429795E-16  8.85227196936137E-02
 cg2d: Sum(rhs),rhsMax =   6.10622663543836E-16  8.90540992000183E-02
 cg2d: Sum(rhs),rhsMax =   3.74700270810990E-16  8.95427877954063E-02
 cg2d: Sum(rhs),rhsMax =   5.68989300120393E-16  8.99681683609922E-02
 cg2d: Sum(rhs),rhsMax =   7.42461647718073E-16  9.03087171850266E-02
 cg2d: Sum(rhs),rhsMax =   8.53483950180589E-16  9.05455210781511E-02
 cg2d: Sum(rhs),rhsMax =   9.36750677027476E-16  9.06653202817038E-02
 cg2d: Sum(rhs),rhsMax =   5.75928194024300E-16  9.06626164589074E-02
 cg2d: Sum(rhs),rhsMax =   6.86950496486816E-16  9.05405397431568E-02
 cg2d: Sum(rhs),rhsMax =   4.05925293378573E-16  9.03103701417029E-02
 cg2d: Sum(rhs),rhsMax =  -1.04083408558608E-17  8.99898242274081E-02
 cg2d: Sum(rhs),rhsMax =   1.26634813746307E-16  8.96004120364414E-02
 cg2d: Sum(rhs),rhsMax =   1.84748050191530E-16  8.91643088347430E-02
 cg2d: Sum(rhs),rhsMax =   1.21430643318376E-17  8.87012494829737E-02
 cg2d: Sum(rhs),rhsMax =  -9.02056207507940E-17  8.82259316756417E-02
 cg2d: Sum(rhs),rhsMax =  -5.89805981832114E-17  8.77463159036157E-02
 cg2d: Sum(rhs),rhsMax =  -1.80411241501588E-16  8.72630547578718E-02
 cg2d: Sum(rhs),rhsMax =  -2.91433543964104E-16  8.67700998922807E-02
 cg2d: Sum(rhs),rhsMax =  -5.48172618408671E-16  8.62563513524465E-02
 cg2d: Sum(rhs),rhsMax =  -3.92047505570758E-16  8.57080582095699E-02
 cg2d: Sum(rhs),rhsMax =  -8.15320033709099E-17  8.51115729176178E-02
 cg2d: Sum(rhs),rhsMax =  -1.23165366794353E-16  8.44560183072814E-02
 cg2d: Sum(rhs),rhsMax =   3.78169717762944E-16  8.37354506308109E-02
 cg2d: Sum(rhs),rhsMax =   5.03069808033274E-17  8.29501901320851E-02
 cg2d: Sum(rhs),rhsMax =  -9.84455572616838E-17  8.21071284256575E-02
 cg2d: Sum(rhs),rhsMax =  -6.76542155630955E-17  8.12189876975221E-02
 cg2d: Sum(rhs),rhsMax =  -2.69749500514394E-16  8.03026735601985E-02
 cg2d: Sum(rhs),rhsMax =  -3.20923843055709E-16  7.93770039758005E-02
 cg2d: Sum(rhs),rhsMax =  -5.96744875736022E-16  7.84601882554019E-02
 cg2d: Sum(rhs),rhsMax =  -5.56846235788555E-16  7.75674589250678E-02
 cg2d: Sum(rhs),rhsMax =  -2.42861286636753E-17  7.67092227067841E-02
 cg2d: Sum(rhs),rhsMax =   3.43475248243408E-16  7.58900036665366E-02
 cg2d: Sum(rhs),rhsMax =   7.07767178198537E-16  7.51083191866450E-02
 cg2d: Sum(rhs),rhsMax =   4.23272528138341E-16  7.43574803023902E-02
 cg2d: Sum(rhs),rhsMax =   4.37150315946155E-16  7.36271655782089E-02
 cg2d: Sum(rhs),rhsMax =   6.31439345255558E-16  7.29055030912946E-02
 cg2d: Sum(rhs),rhsMax =   7.14706072102445E-16  7.21813242235991E-02
 --> objf_test(bi,bj)   = -0.849803597943908E+00
 --> objf_tracer(bi,bj) =  0.000000000000000E+00
 --> objf_atl(bi,bj)    =  0.000000000000000E+00
  local fc = -0.849803597943908E+00
 global fc = -0.849803597943908E+00
 ph-check fcpertplus =  -0.849803598
 ph-check fcpertminus =  -0.849803598
(PID.TID 0000.0001)  MDSREADFIELD: opening global file: walls.bigRidge
(PID.TID 0000.0001) // =======================================================
(PID.TID 0000.0001) // Field Bottom depths (ini_depths) at iteration          1
(PID.TID 0000.0001) // CMIN =         -5.000000000000000E+03
(PID.TID 0000.0001) // CMAX =         -2.000000000000000E+03
(PID.TID 0000.0001) // CINT =          1.111111111111111E+02
(PID.TID 0000.0001) // SYMBOLS (CMIN->CMAX): -abcdefghijklmnopqrstuvwxyz+
(PID.TID 0000.0001) //                  0.0: .
(PID.TID 0000.0001) // RANGE I (Lo:Hi:Step):(  -1:   7:   1)
(PID.TID 0000.0001) // RANGE J (Lo:Hi:Step):(   7:  -1:  -1)
(PID.TID 0000.0001) // RANGE K (Lo:Hi:Step):(   1:   1:   1)
(PID.TID 0000.0001) // =======================================================
(PID.TID 0000.0001) K =   1
(PID.TID 0000.0001) //
(PID.TID 0000.0001) // |--J--|*01234567
(PID.TID 0000.0001) //      7 ----+----
(PID.TID 0000.0001) //      6 .........
(PID.TID 0000.0001) //      5 ----+----
(PID.TID 0000.0001) //      4 ----+----
(PID.TID 0000.0001) //      3 ----+----
(PID.TID 0000.0001) //      2 ----+----
(PID.TID 0000.0001) //      1 .........
(PID.TID 0000.0001) //      0 ----+----
(PID.TID 0000.0001) //     -1 ----+----
(PID.TID 0000.0001) // =======================================================
(PID.TID 0000.0001) // END OF FIELD                                          =
(PID.TID 0000.0001) // =======================================================
(PID.TID 0000.0001) 
(PID.TID 0000.0001) // =======================================================
(PID.TID 0000.0001) // Field Model R_low (ini_masks_etc) at iteration          1
(PID.TID 0000.0001) // CMIN =         -5.000000000000000E+03
(PID.TID 0000.0001) // CMAX =         -2.000000000000000E+03
(PID.TID 0000.0001) // CINT =          1.111111111111111E+02
(PID.TID 0000.0001) // SYMBOLS (CMIN->CMAX): -abcdefghijklmnopqrstuvwxyz+
(PID.TID 0000.0001) //                  0.0: .
(PID.TID 0000.0001) // RANGE I (Lo:Hi:Step):(  -1:   7:   1)
(PID.TID 0000.0001) // RANGE J (Lo:Hi:Step):(   7:  -1:  -1)
(PID.TID 0000.0001) // RANGE K (Lo:Hi:Step):(   1:   1:   1)
(PID.TID 0000.0001) // =======================================================
(PID.TID 0000.0001) K =   1
(PID.TID 0000.0001) //
(PID.TID 0000.0001) // |--J--|*01234567
(PID.TID 0000.0001) //      7 ----+----
(PID.TID 0000.0001) //      6 .........
(PID.TID 0000.0001) //      5 ----+----
(PID.TID 0000.0001) //      4 ----+----
(PID.TID 0000.0001) //      3 ----+----
(PID.TID 0000.0001) //      2 ----+----
(PID.TID 0000.0001) //      1 .........
(PID.TID 0000.0001) //      0 ----+----
(PID.TID 0000.0001) //     -1 ----+----
(PID.TID 0000.0001) // =======================================================
(PID.TID 0000.0001) // END OF FIELD                                          =
(PID.TID 0000.0001) // =======================================================
(PID.TID 0000.0001) 
(PID.TID 0000.0001) // =======================================================
(PID.TID 0000.0001) // Field Model Ro_surf (ini_masks_etc) at iteration          1
(PID.TID 0000.0001) // CMIN =          2.273736754432321E-13
(PID.TID 0000.0001) // CMAX =          2.273736754432321E-13
(PID.TID 0000.0001) // CINT =          0.000000000000000E+00
(PID.TID 0000.0001) // SYMBOLS (CMIN->CMAX): -abcdefghijklmnopqrstuvwxyz+
(PID.TID 0000.0001) //                  0.0: .
(PID.TID 0000.0001) // RANGE I (Lo:Hi:Step):(  -1:   7:   1)
(PID.TID 0000.0001) // RANGE J (Lo:Hi:Step):(   7:  -1:  -1)
(PID.TID 0000.0001) // RANGE K (Lo:Hi:Step):(   1:   1:   1)
(PID.TID 0000.0001) // =======================================================
(PID.TID 0000.0001) // =======================================================
(PID.TID 0000.0001) // END OF FIELD                                          =
(PID.TID 0000.0001) // =======================================================
(PID.TID 0000.0001) 
(PID.TID 0000.0001) // =======================================================
(PID.TID 0000.0001) // Field hFacC at iteration          1
(PID.TID 0000.0001) // CMIN =          1.000000000000000E+00
(PID.TID 0000.0001) // CMAX =          1.000000000000000E+00
(PID.TID 0000.0001) // CINT =          0.000000000000000E+00
(PID.TID 0000.0001) // SYMBOLS (CMIN->CMAX): -abcdefghijklmnopqrstuvwxyz+
(PID.TID 0000.0001) //                  0.0: .
(PID.TID 0000.0001) // RANGE I (Lo:Hi:Step):(  -1:   7:   1)
(PID.TID 0000.0001) // RANGE J (Lo:Hi:Step):(   7:  -1:  -1)
(PID.TID 0000.0001) // RANGE K (Lo:Hi:Step):(   1:   1:   1)
(PID.TID 0000.0001) // =======================================================
(PID.TID 0000.0001) // =======================================================
(PID.TID 0000.0001) // END OF FIELD                                          =
(PID.TID 0000.0001) // =======================================================
(PID.TID 0000.0001) 
(PID.TID 0000.0001) // =======================================================
(PID.TID 0000.0001) // Field hFacW at iteration          1
(PID.TID 0000.0001) // CMIN =          1.000000000000000E+00
(PID.TID 0000.0001) // CMAX =          1.000000000000000E+00
(PID.TID 0000.0001) // CINT =          0.000000000000000E+00
(PID.TID 0000.0001) // SYMBOLS (CMIN->CMAX): -abcdefghijklmnopqrstuvwxyz+
(PID.TID 0000.0001) //                  0.0: .
(PID.TID 0000.0001) // RANGE I (Lo:Hi:Step):(  -1:   7:   1)
(PID.TID 0000.0001) // RANGE J (Lo:Hi:Step):(   7:  -1:  -1)
(PID.TID 0000.0001) // RANGE K (Lo:Hi:Step):(   1:   1:   1)
(PID.TID 0000.0001) // =======================================================
(PID.TID 0000.0001) // =======================================================
(PID.TID 0000.0001) // END OF FIELD                                          =
(PID.TID 0000.0001) // =======================================================
(PID.TID 0000.0001) 
(PID.TID 0000.0001) // =======================================================
(PID.TID 0000.0001) // Field hFacS at iteration          1
(PID.TID 0000.0001) // CMIN =          1.000000000000000E+00
(PID.TID 0000.0001) // CMAX =          1.000000000000000E+00
(PID.TID 0000.0001) // CINT =          0.000000000000000E+00
(PID.TID 0000.0001) // SYMBOLS (CMIN->CMAX): -abcdefghijklmnopqrstuvwxyz+
(PID.TID 0000.0001) //                  0.0: .
(PID.TID 0000.0001) // RANGE I (Lo:Hi:Step):(  -1:   7:   1)
(PID.TID 0000.0001) // RANGE J (Lo:Hi:Step):(   7:  -1:  -1)
(PID.TID 0000.0001) // RANGE K (Lo:Hi:Step):(   1:   1:   1)
(PID.TID 0000.0001) // =======================================================
(PID.TID 0000.0001) // =======================================================
(PID.TID 0000.0001) // END OF FIELD                                          =
(PID.TID 0000.0001) // =======================================================
(PID.TID 0000.0001) 
(PID.TID 0000.0001) %MON surfExpanfCori_max           =  -1.0735540000000E-04
(PID.TID 0000.0001) %MON surfExpanfCori_min           =  -1.1783060000000E-04
(PID.TID 0000.0001) %MON surfExpanfCori_mean          =  -1.1259300000000E-04
(PID.TID 0000.0001) %MON surfExpanfCori_sd            =   3.7035424771427E-06
(PID.TID 0000.0001) %MON surfExpanfCoriG_max          =  -1.0866480000000E-04
(PID.TID 0000.0001) %MON surfExpanfCoriG_min          =  -1.1914000000000E-04
(PID.TID 0000.0001) %MON surfExpanfCoriG_mean         =  -1.1390240000000E-04
(PID.TID 0000.0001) %MON surfExpanfCoriG_sd           =   3.7035424771427E-06
(PID.TID 0000.0001) %MON surfExpanfCoriCos_max        =   0.0000000000000E+00
(PID.TID 0000.0001) %MON surfExpanfCoriCos_min        =   0.0000000000000E+00
(PID.TID 0000.0001) %MON surfExpanfCoriCos_mean       =   0.0000000000000E+00
(PID.TID 0000.0001) %MON surfExpanfCoriCos_sd         =   0.0000000000000E+00
(PID.TID 0000.0001) INI_CG2D: CG2D normalisation factor =  1.9999999999999996E-04
(PID.TID 0000.0001) 
                     ctrl_depth_ini: ctrl update R_low,
                                     adding the control vector.
(PID.TID 0000.0001)  MDSREADFIELD: opening file: xx_depth.0000000000.001.001.data
(PID.TID 0000.0001) // =======================================================
(PID.TID 0000.0001) // Field Model Ro_surf (update_masks_etc) at iteration          1
(PID.TID 0000.0001) // CMIN =          2.273736754432321E-13
(PID.TID 0000.0001) // CMAX =          2.273736754432321E-13
(PID.TID 0000.0001) // CINT =          0.000000000000000E+00
(PID.TID 0000.0001) // SYMBOLS (CMIN->CMAX): -abcdefghijklmnopqrstuvwxyz+
(PID.TID 0000.0001) //                  0.0: .
(PID.TID 0000.0001) // RANGE I (Lo:Hi:Step):(  -1:   7:   1)
(PID.TID 0000.0001) // RANGE J (Lo:Hi:Step):(   7:  -1:  -1)
(PID.TID 0000.0001) // RANGE K (Lo:Hi:Step):(   1:   1:   1)
(PID.TID 0000.0001) // =======================================================
(PID.TID 0000.0001) // =======================================================
(PID.TID 0000.0001) // END OF FIELD                                          =
(PID.TID 0000.0001) // =======================================================
(PID.TID 0000.0001) 
(PID.TID 0000.0001) // =======================================================
(PID.TID 0000.0001) // Field hFacC at iteration          1
(PID.TID 0000.0001) // CMIN =          1.000000000000000E+00
(PID.TID 0000.0001) // CMAX =          1.000000000000000E+00
(PID.TID 0000.0001) // CINT =          0.000000000000000E+00
(PID.TID 0000.0001) // SYMBOLS (CMIN->CMAX): -abcdefghijklmnopqrstuvwxyz+
(PID.TID 0000.0001) //                  0.0: .
(PID.TID 0000.0001) // RANGE I (Lo:Hi:Step):(  -1:   7:   1)
(PID.TID 0000.0001) // RANGE J (Lo:Hi:Step):(   7:  -1:  -1)
(PID.TID 0000.0001) // RANGE K (Lo:Hi:Step):(   1:   1:   1)
(PID.TID 0000.0001) // =======================================================
(PID.TID 0000.0001) // =======================================================
(PID.TID 0000.0001) // END OF FIELD                                          =
(PID.TID 0000.0001) // =======================================================
(PID.TID 0000.0001) 
(PID.TID 0000.0001) // =======================================================
(PID.TID 0000.0001) // Field hFacW at iteration          1
(PID.TID 0000.0001) // CMIN =          1.000000000000000E+00
(PID.TID 0000.0001) // CMAX =          1.000000000000000E+00
(PID.TID 0000.0001) // CINT =          0.000000000000000E+00
(PID.TID 0000.0001) // SYMBOLS (CMIN->CMAX): -abcdefghijklmnopqrstuvwxyz+
(PID.TID 0000.0001) //                  0.0: .
(PID.TID 0000.0001) // RANGE I (Lo:Hi:Step):(  -1:   7:   1)
(PID.TID 0000.0001) // RANGE J (Lo:Hi:Step):(   7:  -1:  -1)
(PID.TID 0000.0001) // RANGE K (Lo:Hi:Step):(   1:   1:   1)
(PID.TID 0000.0001) // =======================================================
(PID.TID 0000.0001) // =======================================================
(PID.TID 0000.0001) // END OF FIELD                                          =
(PID.TID 0000.0001) // =======================================================
(PID.TID 0000.0001) 
(PID.TID 0000.0001) // =======================================================
(PID.TID 0000.0001) // Field hFacS at iteration          1
(PID.TID 0000.0001) // CMIN =          1.000000000000000E+00
(PID.TID 0000.0001) // CMAX =          1.000000000000000E+00
(PID.TID 0000.0001) // CINT =          0.000000000000000E+00
(PID.TID 0000.0001) // SYMBOLS (CMIN->CMAX): -abcdefghijklmnopqrstuvwxyz+
(PID.TID 0000.0001) //                  0.0: .
(PID.TID 0000.0001) // RANGE I (Lo:Hi:Step):(  -1:   7:   1)
(PID.TID 0000.0001) // RANGE J (Lo:Hi:Step):(   7:  -1:  -1)
(PID.TID 0000.0001) // RANGE K (Lo:Hi:Step):(   1:   1:   1)
(PID.TID 0000.0001) // =======================================================
(PID.TID 0000.0001) // =======================================================
(PID.TID 0000.0001) // END OF FIELD                                          =
(PID.TID 0000.0001) // =======================================================
(PID.TID 0000.0001) 
(PID.TID 0000.0001) // =======================================================
(PID.TID 0000.0001) // Field Initial Temperature at iteration          1
(PID.TID 0000.0001) // CMIN =          4.000000000000000E+00
(PID.TID 0000.0001) // CMAX =          4.000000000000000E+00
(PID.TID 0000.0001) // CINT =          0.000000000000000E+00
(PID.TID 0000.0001) // SYMBOLS (CMIN->CMAX): -abcdefghijklmnopqrstuvwxyz+
(PID.TID 0000.0001) //                  0.0: .
(PID.TID 0000.0001) // RANGE I (Lo:Hi:Step):(   1:   5:   1)
(PID.TID 0000.0001) // RANGE J (Lo:Hi:Step):(   5:   1:  -1)
(PID.TID 0000.0001) // RANGE K (Lo:Hi:Step):(   1:   1:   1)
(PID.TID 0000.0001) // =======================================================
(PID.TID 0000.0001) // =======================================================
(PID.TID 0000.0001) // END OF FIELD                                          =
(PID.TID 0000.0001) // =======================================================
(PID.TID 0000.0001) 
(PID.TID 0000.0001) // =======================================================
(PID.TID 0000.0001) // Field Initial Salinity at iteration          1
(PID.TID 0000.0001) // CMIN =          3.500000000000000E+01
(PID.TID 0000.0001) // CMAX =          3.500000000000000E+01
(PID.TID 0000.0001) // CINT =          0.000000000000000E+00
(PID.TID 0000.0001) // SYMBOLS (CMIN->CMAX): -abcdefghijklmnopqrstuvwxyz+
(PID.TID 0000.0001) //                  0.0: .
(PID.TID 0000.0001) // RANGE I (Lo:Hi:Step):(   1:   5:   1)
(PID.TID 0000.0001) // RANGE J (Lo:Hi:Step):(   5:   1:  -1)
(PID.TID 0000.0001) // RANGE K (Lo:Hi:Step):(   1:   1:   1)
(PID.TID 0000.0001) // =======================================================
(PID.TID 0000.0001) // =======================================================
(PID.TID 0000.0001) // END OF FIELD                                          =
(PID.TID 0000.0001) // =======================================================
(PID.TID 0000.0001) 
(PID.TID 0000.0001) Start initial hydrostatic pressure computation
(PID.TID 0000.0001) Pressure is predetermined for buoyancyRelation OCEANIC
(PID.TID 0000.0001) 
(PID.TID 0000.0001)  MDSREADFIELD: opening global file: windx.sin_y
(PID.TID 0000.0001) // =======================================================
(PID.TID 0000.0001) // Model current state
(PID.TID 0000.0001) // =======================================================
(PID.TID 0000.0001) 
 cg2d: Sum(rhs),rhsMax =   0.00000000000000E+00  0.00000000000000E+00
 cg2d: Sum(rhs),rhsMax =   4.68375338513738E-16  2.62483626325265E-03
 cg2d: Sum(rhs),rhsMax =   3.76434994286967E-16  5.13362633360820E-03
 cg2d: Sum(rhs),rhsMax =   2.51534904016637E-16  7.16168459280808E-03
 cg2d: Sum(rhs),rhsMax =   6.80878964320897E-16  9.29466755986014E-03
 cg2d: Sum(rhs),rhsMax =   9.26342336171615E-16  1.15304356797511E-02
 cg2d: Sum(rhs),rhsMax =   6.98659879949659E-16  1.37809802353870E-02
 cg2d: Sum(rhs),rhsMax =   9.71445146547012E-16  1.60011247469289E-02
 cg2d: Sum(rhs),rhsMax =   5.20417042793042E-16  1.82027337912225E-02
 cg2d: Sum(rhs),rhsMax =   6.93889390390723E-17  2.04493560871551E-02
 cg2d: Sum(rhs),rhsMax =   2.08166817117217E-16  2.25706027739098E-02
 cg2d: Sum(rhs),rhsMax =   6.24500451351651E-16  2.45301657162020E-02
 cg2d: Sum(rhs),rhsMax =   9.15933995315754E-16  2.63097944374927E-02
 cg2d: Sum(rhs),rhsMax =   9.71445146547012E-17  2.79110497217142E-02
 cg2d: Sum(rhs),rhsMax =   1.38777878078145E-17  2.93538602383664E-02
 cg2d: Sum(rhs),rhsMax =   3.33066907387547E-16  3.06720439109423E-02
 cg2d: Sum(rhs),rhsMax =  -4.99600361081320E-16  3.19067816610536E-02
 cg2d: Sum(rhs),rhsMax =  -4.16333634234434E-17  3.30992667639499E-02
 cg2d: Sum(rhs),rhsMax =  -6.31439345255558E-16  3.42837432842201E-02
 cg2d: Sum(rhs),rhsMax =  -1.17961196366423E-16  3.54819650782976E-02
 cg2d: Sum(rhs),rhsMax =  -4.02455846426619E-16  3.66998058458972E-02
 cg2d: Sum(rhs),rhsMax =  -3.53883589099269E-16  3.79264045504640E-02
 cg2d: Sum(rhs),rhsMax =  -1.45716771982052E-16  3.91358858388561E-02
 cg2d: Sum(rhs),rhsMax =  -1.80411241501588E-16  4.02913639261801E-02
 cg2d: Sum(rhs),rhsMax =  -8.18789480661053E-16  4.13506294670109E-02
 cg2d: Sum(rhs),rhsMax =  -2.22044604925031E-16  4.22726606684742E-02
 cg2d: Sum(rhs),rhsMax =  -2.08166817117217E-16  4.30239435265244E-02
 cg2d: Sum(rhs),rhsMax =  -3.88578058618805E-16  4.35835862263463E-02
 cg2d: Sum(rhs),rhsMax =  -2.08166817117217E-16  4.39463978549371E-02
 cg2d: Sum(rhs),rhsMax =   1.38777878078145E-16  4.41234514687522E-02
 cg2d: Sum(rhs),rhsMax =   3.74700270810990E-16  4.41400962296584E-02
 cg2d: Sum(rhs),rhsMax =   5.55111512312578E-16  4.40318241364020E-02
 cg2d: Sum(rhs),rhsMax =   1.66533453693773E-16  4.38387397480459E-02
 cg2d: Sum(rhs),rhsMax =  -4.57966997657877E-16  4.54379564434545E-02
 cg2d: Sum(rhs),rhsMax =  -6.52256026967279E-16  4.77259345831477E-02
 cg2d: Sum(rhs),rhsMax =  -4.16333634234434E-16  4.99949947407192E-02
 cg2d: Sum(rhs),rhsMax =  -1.16573417585641E-15  5.22073351048866E-02
 cg2d: Sum(rhs),rhsMax =  -2.22044604925031E-16  5.43317160002372E-02
 cg2d: Sum(rhs),rhsMax =  -1.24900090270330E-16  5.63476439505484E-02
 cg2d: Sum(rhs),rhsMax =  -1.94289029309402E-16  5.82478252901776E-02
 cg2d: Sum(rhs),rhsMax =   1.66533453693773E-16  6.00385233032928E-02
 cg2d: Sum(rhs),rhsMax =  -3.05311331771918E-16  6.17377934916124E-02
 cg2d: Sum(rhs),rhsMax =   1.66533453693773E-16  6.33719188831750E-02
 cg2d: Sum(rhs),rhsMax =  -5.55111512312578E-17  6.49706567783974E-02
 cg2d: Sum(rhs),rhsMax =  -5.27355936696949E-16  6.65620861371268E-02
 cg2d: Sum(rhs),rhsMax =  -6.93889390390723E-16  6.81678818718649E-02
 cg2d: Sum(rhs),rhsMax =  -1.24900090270330E-15  6.97997402975090E-02
 cg2d: Sum(rhs),rhsMax =  -1.41553435639707E-15  7.14574674476168E-02
 cg2d: Sum(rhs),rhsMax =  -1.58206781009085E-15  7.31289635194147E-02
 cg2d: Sum(rhs),rhsMax =  -1.66533453693773E-15  7.47920407054669E-02
 cg2d: Sum(rhs),rhsMax =  -1.74860126378462E-15  7.64177411555024E-02
 cg2d: Sum(rhs),rhsMax =  -2.16493489801906E-15  7.79746106013342E-02
 cg2d: Sum(rhs),rhsMax =  -1.66533453693773E-15  7.94332555833646E-02
 cg2d: Sum(rhs),rhsMax =  -1.63757896132211E-15  8.07704834293989E-02
 cg2d: Sum(rhs),rhsMax =  -1.52655665885959E-15  8.19723990199665E-02
 cg2d: Sum(rhs),rhsMax =  -1.02695629777827E-15  8.30360026830601E-02
 cg2d: Sum(rhs),rhsMax =  -6.80011602582908E-16  8.39690756684005E-02
 cg2d: Sum(rhs),rhsMax =  -5.13478148889135E-16  8.47884155050402E-02
 cg2d: Sum(rhs),rhsMax =  -1.94289029309402E-16  8.55167463512555E-02
 cg2d: Sum(rhs),rhsMax =  -1.80411241501588E-16  8.61788332411815E-02
 cg2d: Sum(rhs),rhsMax =  -1.38777878078145E-17  8.67974392961796E-02
 cg2d: Sum(rhs),rhsMax =   6.24500451351651E-16  8.73897659407166E-02
 cg2d: Sum(rhs),rhsMax =   8.04911692853238E-16  8.79649137638420E-02
 cg2d: Sum(rhs),rhsMax =   7.63278329429795E-16  8.85227196936137E-02
 cg2d: Sum(rhs),rhsMax =   6.10622663543836E-16  8.90540992000183E-02
 cg2d: Sum(rhs),rhsMax =   3.74700270810990E-16  8.95427877954063E-02
 cg2d: Sum(rhs),rhsMax =   5.68989300120393E-16  8.99681683609922E-02
 cg2d: Sum(rhs),rhsMax =   7.42461647718073E-16  9.03087171850266E-02
 cg2d: Sum(rhs),rhsMax =   8.53483950180589E-16  9.05455210781511E-02
 cg2d: Sum(rhs),rhsMax =   9.36750677027476E-16  9.06653202817038E-02
 cg2d: Sum(rhs),rhsMax =   5.75928194024300E-16  9.06626164589074E-02
 cg2d: Sum(rhs),rhsMax =   6.86950496486816E-16  9.05405397431568E-02
 cg2d: Sum(rhs),rhsMax =   4.05925293378573E-16  9.03103701417029E-02
 cg2d: Sum(rhs),rhsMax =  -1.04083408558608E-17  8.99898242274081E-02
 cg2d: Sum(rhs),rhsMax =   1.26634813746307E-16  8.96004120364414E-02
 cg2d: Sum(rhs),rhsMax =   1.84748050191530E-16  8.91643088347430E-02
 cg2d: Sum(rhs),rhsMax =   1.21430643318376E-17  8.87012494829737E-02
 cg2d: Sum(rhs),rhsMax =  -9.02056207507940E-17  8.82259316756417E-02
 cg2d: Sum(rhs),rhsMax =  -5.89805981832114E-17  8.77463159036157E-02
 cg2d: Sum(rhs),rhsMax =  -1.80411241501588E-16  8.72630547578718E-02
 cg2d: Sum(rhs),rhsMax =  -2.91433543964104E-16  8.67700998922807E-02
 cg2d: Sum(rhs),rhsMax =  -5.48172618408671E-16  8.62563513524465E-02
 cg2d: Sum(rhs),rhsMax =  -3.92047505570758E-16  8.57080582095699E-02
 cg2d: Sum(rhs),rhsMax =  -8.15320033709099E-17  8.51115729176178E-02
 cg2d: Sum(rhs),rhsMax =  -1.23165366794353E-16  8.44560183072814E-02
 cg2d: Sum(rhs),rhsMax =   3.78169717762944E-16  8.37354506308109E-02
 cg2d: Sum(rhs),rhsMax =   5.03069808033274E-17  8.29501901320851E-02
 cg2d: Sum(rhs),rhsMax =  -9.84455572616838E-17  8.21071284256575E-02
 cg2d: Sum(rhs),rhsMax =  -6.76542155630955E-17  8.12189876975221E-02
 cg2d: Sum(rhs),rhsMax =  -2.69749500514394E-16  8.03026735601985E-02
 cg2d: Sum(rhs),rhsMax =  -3.20923843055709E-16  7.93770039758005E-02
 cg2d: Sum(rhs),rhsMax =  -5.96744875736022E-16  7.84601882554019E-02
 cg2d: Sum(rhs),rhsMax =  -5.56846235788555E-16  7.75674589250678E-02
 cg2d: Sum(rhs),rhsMax =  -2.42861286636753E-17  7.67092227067841E-02
 cg2d: Sum(rhs),rhsMax =   3.43475248243408E-16  7.58900036665366E-02
 cg2d: Sum(rhs),rhsMax =   7.07767178198537E-16  7.51083191866450E-02
 cg2d: Sum(rhs),rhsMax =   4.23272528138341E-16  7.43574803023902E-02
 cg2d: Sum(rhs),rhsMax =   4.37150315946155E-16  7.36271655782089E-02
 cg2d: Sum(rhs),rhsMax =   6.31439345255558E-16  7.29055030912946E-02
 cg2d: Sum(rhs),rhsMax =   7.14706072102445E-16  7.21813242235991E-02
 --> objf_test(bi,bj)   = -0.849803597943908E+00
 --> objf_tracer(bi,bj) =  0.000000000000000E+00
 --> objf_atl(bi,bj)    =  0.000000000000000E+00
  local fc = -0.849803597943908E+00
 global fc = -0.849803597943908E+00
 ph-grd  ierr ---------------------------
 ph-grd  ierr =  -3, icomp =  24, ichknum =  24
(PID.TID 0000.0001)  MDSREADFIELD: opening global file: walls.bigRidge
(PID.TID 0000.0001) // =======================================================
(PID.TID 0000.0001) // Field Bottom depths (ini_depths) at iteration          1
(PID.TID 0000.0001) // CMIN =         -5.000000000000000E+03
(PID.TID 0000.0001) // CMAX =         -2.000000000000000E+03
(PID.TID 0000.0001) // CINT =          1.111111111111111E+02
(PID.TID 0000.0001) // SYMBOLS (CMIN->CMAX): -abcdefghijklmnopqrstuvwxyz+
(PID.TID 0000.0001) //                  0.0: .
(PID.TID 0000.0001) // RANGE I (Lo:Hi:Step):(  -1:   7:   1)
(PID.TID 0000.0001) // RANGE J (Lo:Hi:Step):(   7:  -1:  -1)
(PID.TID 0000.0001) // RANGE K (Lo:Hi:Step):(   1:   1:   1)
(PID.TID 0000.0001) // =======================================================
(PID.TID 0000.0001) K =   1
(PID.TID 0000.0001) //
(PID.TID 0000.0001) // |--J--|*01234567
(PID.TID 0000.0001) //      7 ----+----
(PID.TID 0000.0001) //      6 .........
(PID.TID 0000.0001) //      5 ----+----
(PID.TID 0000.0001) //      4 ----+----
(PID.TID 0000.0001) //      3 ----+----
(PID.TID 0000.0001) //      2 ----+----
(PID.TID 0000.0001) //      1 .........
(PID.TID 0000.0001) //      0 ----+----
(PID.TID 0000.0001) //     -1 ----+----
(PID.TID 0000.0001) // =======================================================
(PID.TID 0000.0001) // END OF FIELD                                          =
(PID.TID 0000.0001) // =======================================================
(PID.TID 0000.0001) 
(PID.TID 0000.0001) // =======================================================
(PID.TID 0000.0001) // Field Model R_low (ini_masks_etc) at iteration          1
(PID.TID 0000.0001) // CMIN =         -5.000000000000000E+03
(PID.TID 0000.0001) // CMAX =         -2.000000000000000E+03
(PID.TID 0000.0001) // CINT =          1.111111111111111E+02
(PID.TID 0000.0001) // SYMBOLS (CMIN->CMAX): -abcdefghijklmnopqrstuvwxyz+
(PID.TID 0000.0001) //                  0.0: .
(PID.TID 0000.0001) // RANGE I (Lo:Hi:Step):(  -1:   7:   1)
(PID.TID 0000.0001) // RANGE J (Lo:Hi:Step):(   7:  -1:  -1)
(PID.TID 0000.0001) // RANGE K (Lo:Hi:Step):(   1:   1:   1)
(PID.TID 0000.0001) // =======================================================
(PID.TID 0000.0001) K =   1
(PID.TID 0000.0001) //
(PID.TID 0000.0001) // |--J--|*01234567
(PID.TID 0000.0001) //      7 ----+----
(PID.TID 0000.0001) //      6 .........
(PID.TID 0000.0001) //      5 ----+----
(PID.TID 0000.0001) //      4 ----+----
(PID.TID 0000.0001) //      3 ----+----
(PID.TID 0000.0001) //      2 ----+----
(PID.TID 0000.0001) //      1 .........
(PID.TID 0000.0001) //      0 ----+----
(PID.TID 0000.0001) //     -1 ----+----
(PID.TID 0000.0001) // =======================================================
(PID.TID 0000.0001) // END OF FIELD                                          =
(PID.TID 0000.0001) // =======================================================
(PID.TID 0000.0001) 
(PID.TID 0000.0001) // =======================================================
(PID.TID 0000.0001) // Field Model Ro_surf (ini_masks_etc) at iteration          1
(PID.TID 0000.0001) // CMIN =          2.273736754432321E-13
(PID.TID 0000.0001) // CMAX =          2.273736754432321E-13
(PID.TID 0000.0001) // CINT =          0.000000000000000E+00
(PID.TID 0000.0001) // SYMBOLS (CMIN->CMAX): -abcdefghijklmnopqrstuvwxyz+
(PID.TID 0000.0001) //                  0.0: .
(PID.TID 0000.0001) // RANGE I (Lo:Hi:Step):(  -1:   7:   1)
(PID.TID 0000.0001) // RANGE J (Lo:Hi:Step):(   7:  -1:  -1)
(PID.TID 0000.0001) // RANGE K (Lo:Hi:Step):(   1:   1:   1)
(PID.TID 0000.0001) // =======================================================
(PID.TID 0000.0001) // =======================================================
(PID.TID 0000.0001) // END OF FIELD                                          =
(PID.TID 0000.0001) // =======================================================
(PID.TID 0000.0001) 
(PID.TID 0000.0001) // =======================================================
(PID.TID 0000.0001) // Field hFacC at iteration          1
(PID.TID 0000.0001) // CMIN =          1.000000000000000E+00
(PID.TID 0000.0001) // CMAX =          1.000000000000000E+00
(PID.TID 0000.0001) // CINT =          0.000000000000000E+00
(PID.TID 0000.0001) // SYMBOLS (CMIN->CMAX): -abcdefghijklmnopqrstuvwxyz+
(PID.TID 0000.0001) //                  0.0: .
(PID.TID 0000.0001) // RANGE I (Lo:Hi:Step):(  -1:   7:   1)
(PID.TID 0000.0001) // RANGE J (Lo:Hi:Step):(   7:  -1:  -1)
(PID.TID 0000.0001) // RANGE K (Lo:Hi:Step):(   1:   1:   1)
(PID.TID 0000.0001) // =======================================================
(PID.TID 0000.0001) // =======================================================
(PID.TID 0000.0001) // END OF FIELD                                          =
(PID.TID 0000.0001) // =======================================================
(PID.TID 0000.0001) 
(PID.TID 0000.0001) // =======================================================
(PID.TID 0000.0001) // Field hFacW at iteration          1
(PID.TID 0000.0001) // CMIN =          1.000000000000000E+00
(PID.TID 0000.0001) // CMAX =          1.000000000000000E+00
(PID.TID 0000.0001) // CINT =          0.000000000000000E+00
(PID.TID 0000.0001) // SYMBOLS (CMIN->CMAX): -abcdefghijklmnopqrstuvwxyz+
(PID.TID 0000.0001) //                  0.0: .
(PID.TID 0000.0001) // RANGE I (Lo:Hi:Step):(  -1:   7:   1)
(PID.TID 0000.0001) // RANGE J (Lo:Hi:Step):(   7:  -1:  -1)
(PID.TID 0000.0001) // RANGE K (Lo:Hi:Step):(   1:   1:   1)
(PID.TID 0000.0001) // =======================================================
(PID.TID 0000.0001) // =======================================================
(PID.TID 0000.0001) // END OF FIELD                                          =
(PID.TID 0000.0001) // =======================================================
(PID.TID 0000.0001) 
(PID.TID 0000.0001) // =======================================================
(PID.TID 0000.0001) // Field hFacS at iteration          1
(PID.TID 0000.0001) // CMIN =          1.000000000000000E+00
(PID.TID 0000.0001) // CMAX =          1.000000000000000E+00
(PID.TID 0000.0001) // CINT =          0.000000000000000E+00
(PID.TID 0000.0001) // SYMBOLS (CMIN->CMAX): -abcdefghijklmnopqrstuvwxyz+
(PID.TID 0000.0001) //                  0.0: .
(PID.TID 0000.0001) // RANGE I (Lo:Hi:Step):(  -1:   7:   1)
(PID.TID 0000.0001) // RANGE J (Lo:Hi:Step):(   7:  -1:  -1)
(PID.TID 0000.0001) // RANGE K (Lo:Hi:Step):(   1:   1:   1)
(PID.TID 0000.0001) // =======================================================
(PID.TID 0000.0001) // =======================================================
(PID.TID 0000.0001) // END OF FIELD                                          =
(PID.TID 0000.0001) // =======================================================
(PID.TID 0000.0001) 
(PID.TID 0000.0001) %MON surfExpanfCori_max           =  -1.0735540000000E-04
(PID.TID 0000.0001) %MON surfExpanfCori_min           =  -1.1783060000000E-04
(PID.TID 0000.0001) %MON surfExpanfCori_mean          =  -1.1259300000000E-04
(PID.TID 0000.0001) %MON surfExpanfCori_sd            =   3.7035424771427E-06
(PID.TID 0000.0001) %MON surfExpanfCoriG_max          =  -1.0866480000000E-04
(PID.TID 0000.0001) %MON surfExpanfCoriG_min          =  -1.1914000000000E-04
(PID.TID 0000.0001) %MON surfExpanfCoriG_mean         =  -1.1390240000000E-04
(PID.TID 0000.0001) %MON surfExpanfCoriG_sd           =   3.7035424771427E-06
(PID.TID 0000.0001) %MON surfExpanfCoriCos_max        =   0.0000000000000E+00
(PID.TID 0000.0001) %MON surfExpanfCoriCos_min        =   0.0000000000000E+00
(PID.TID 0000.0001) %MON surfExpanfCoriCos_mean       =   0.0000000000000E+00
(PID.TID 0000.0001) %MON surfExpanfCoriCos_sd         =   0.0000000000000E+00
(PID.TID 0000.0001) INI_CG2D: CG2D normalisation factor =  1.9999999999999996E-04
(PID.TID 0000.0001) 
                     ctrl_depth_ini: ctrl update R_low,
                                     adding the control vector.
(PID.TID 0000.0001)  MDSREADFIELD: opening file: xx_depth.0000000000.001.001.data
(PID.TID 0000.0001) // =======================================================
(PID.TID 0000.0001) // Field Model Ro_surf (update_masks_etc) at iteration          1
(PID.TID 0000.0001) // CMIN =          2.273736754432321E-13
(PID.TID 0000.0001) // CMAX =          2.273736754432321E-13
(PID.TID 0000.0001) // CINT =          0.000000000000000E+00
(PID.TID 0000.0001) // SYMBOLS (CMIN->CMAX): -abcdefghijklmnopqrstuvwxyz+
(PID.TID 0000.0001) //                  0.0: .
(PID.TID 0000.0001) // RANGE I (Lo:Hi:Step):(  -1:   7:   1)
(PID.TID 0000.0001) // RANGE J (Lo:Hi:Step):(   7:  -1:  -1)
(PID.TID 0000.0001) // RANGE K (Lo:Hi:Step):(   1:   1:   1)
(PID.TID 0000.0001) // =======================================================
(PID.TID 0000.0001) // =======================================================
(PID.TID 0000.0001) // END OF FIELD                                          =
(PID.TID 0000.0001) // =======================================================
(PID.TID 0000.0001) 
(PID.TID 0000.0001) // =======================================================
(PID.TID 0000.0001) // Field hFacC at iteration          1
(PID.TID 0000.0001) // CMIN =          1.000000000000000E+00
(PID.TID 0000.0001) // CMAX =          1.000000000000000E+00
(PID.TID 0000.0001) // CINT =          0.000000000000000E+00
(PID.TID 0000.0001) // SYMBOLS (CMIN->CMAX): -abcdefghijklmnopqrstuvwxyz+
(PID.TID 0000.0001) //                  0.0: .
(PID.TID 0000.0001) // RANGE I (Lo:Hi:Step):(  -1:   7:   1)
(PID.TID 0000.0001) // RANGE J (Lo:Hi:Step):(   7:  -1:  -1)
(PID.TID 0000.0001) // RANGE K (Lo:Hi:Step):(   1:   1:   1)
(PID.TID 0000.0001) // =======================================================
(PID.TID 0000.0001) // =======================================================
(PID.TID 0000.0001) // END OF FIELD                                          =
(PID.TID 0000.0001) // =======================================================
(PID.TID 0000.0001) 
(PID.TID 0000.0001) // =======================================================
(PID.TID 0000.0001) // Field hFacW at iteration          1
(PID.TID 0000.0001) // CMIN =          1.000000000000000E+00
(PID.TID 0000.0001) // CMAX =          1.000000000000000E+00
(PID.TID 0000.0001) // CINT =          0.000000000000000E+00
(PID.TID 0000.0001) // SYMBOLS (CMIN->CMAX): -abcdefghijklmnopqrstuvwxyz+
(PID.TID 0000.0001) //                  0.0: .
(PID.TID 0000.0001) // RANGE I (Lo:Hi:Step):(  -1:   7:   1)
(PID.TID 0000.0001) // RANGE J (Lo:Hi:Step):(   7:  -1:  -1)
(PID.TID 0000.0001) // RANGE K (Lo:Hi:Step):(   1:   1:   1)
(PID.TID 0000.0001) // =======================================================
(PID.TID 0000.0001) // =======================================================
(PID.TID 0000.0001) // END OF FIELD                                          =
(PID.TID 0000.0001) // =======================================================
(PID.TID 0000.0001) 
(PID.TID 0000.0001) // =======================================================
(PID.TID 0000.0001) // Field hFacS at iteration          1
(PID.TID 0000.0001) // CMIN =          1.000000000000000E+00
(PID.TID 0000.0001) // CMAX =          1.000000000000000E+00
(PID.TID 0000.0001) // CINT =          0.000000000000000E+00
(PID.TID 0000.0001) // SYMBOLS (CMIN->CMAX): -abcdefghijklmnopqrstuvwxyz+
(PID.TID 0000.0001) //                  0.0: .
(PID.TID 0000.0001) // RANGE I (Lo:Hi:Step):(  -1:   7:   1)
(PID.TID 0000.0001) // RANGE J (Lo:Hi:Step):(   7:  -1:  -1)
(PID.TID 0000.0001) // RANGE K (Lo:Hi:Step):(   1:   1:   1)
(PID.TID 0000.0001) // =======================================================
(PID.TID 0000.0001) // =======================================================
(PID.TID 0000.0001) // END OF FIELD                                          =
(PID.TID 0000.0001) // =======================================================
(PID.TID 0000.0001) 
(PID.TID 0000.0001) // =======================================================
(PID.TID 0000.0001) // Field Initial Temperature at iteration          1
(PID.TID 0000.0001) // CMIN =          4.000000000000000E+00
(PID.TID 0000.0001) // CMAX =          4.000000000000000E+00
(PID.TID 0000.0001) // CINT =          0.000000000000000E+00
(PID.TID 0000.0001) // SYMBOLS (CMIN->CMAX): -abcdefghijklmnopqrstuvwxyz+
(PID.TID 0000.0001) //                  0.0: .
(PID.TID 0000.0001) // RANGE I (Lo:Hi:Step):(   1:   5:   1)
(PID.TID 0000.0001) // RANGE J (Lo:Hi:Step):(   5:   1:  -1)
(PID.TID 0000.0001) // RANGE K (Lo:Hi:Step):(   1:   1:   1)
(PID.TID 0000.0001) // =======================================================
(PID.TID 0000.0001) // =======================================================
(PID.TID 0000.0001) // END OF FIELD                                          =
(PID.TID 0000.0001) // =======================================================
(PID.TID 0000.0001) 
(PID.TID 0000.0001) // =======================================================
(PID.TID 0000.0001) // Field Initial Salinity at iteration          1
(PID.TID 0000.0001) // CMIN =          3.500000000000000E+01
(PID.TID 0000.0001) // CMAX =          3.500000000000000E+01
(PID.TID 0000.0001) // CINT =          0.000000000000000E+00
(PID.TID 0000.0001) // SYMBOLS (CMIN->CMAX): -abcdefghijklmnopqrstuvwxyz+
(PID.TID 0000.0001) //                  0.0: .
(PID.TID 0000.0001) // RANGE I (Lo:Hi:Step):(   1:   5:   1)
(PID.TID 0000.0001) // RANGE J (Lo:Hi:Step):(   5:   1:  -1)
(PID.TID 0000.0001) // RANGE K (Lo:Hi:Step):(   1:   1:   1)
(PID.TID 0000.0001) // =======================================================
(PID.TID 0000.0001) // =======================================================
(PID.TID 0000.0001) // END OF FIELD                                          =
(PID.TID 0000.0001) // =======================================================
(PID.TID 0000.0001) 
(PID.TID 0000.0001) Start initial hydrostatic pressure computation
(PID.TID 0000.0001) Pressure is predetermined for buoyancyRelation OCEANIC
(PID.TID 0000.0001) 
(PID.TID 0000.0001)  MDSREADFIELD: opening global file: windx.sin_y
(PID.TID 0000.0001) // =======================================================
(PID.TID 0000.0001) // Model current state
(PID.TID 0000.0001) // =======================================================
(PID.TID 0000.0001) 
 cg2d: Sum(rhs),rhsMax =   0.00000000000000E+00  0.00000000000000E+00
 cg2d: Sum(rhs),rhsMax =   4.68375338513738E-16  2.62483626325265E-03
 cg2d: Sum(rhs),rhsMax =   3.76434994286967E-16  5.13362633360820E-03
 cg2d: Sum(rhs),rhsMax =   2.51534904016637E-16  7.16168459280808E-03
 cg2d: Sum(rhs),rhsMax =   6.80878964320897E-16  9.29466755986014E-03
 cg2d: Sum(rhs),rhsMax =   9.26342336171615E-16  1.15304356797511E-02
 cg2d: Sum(rhs),rhsMax =   6.98659879949659E-16  1.37809802353870E-02
 cg2d: Sum(rhs),rhsMax =   9.71445146547012E-16  1.60011247469289E-02
 cg2d: Sum(rhs),rhsMax =   5.20417042793042E-16  1.82027337912225E-02
 cg2d: Sum(rhs),rhsMax =   6.93889390390723E-17  2.04493560871551E-02
 cg2d: Sum(rhs),rhsMax =   2.08166817117217E-16  2.25706027739098E-02
 cg2d: Sum(rhs),rhsMax =   6.24500451351651E-16  2.45301657162020E-02
 cg2d: Sum(rhs),rhsMax =   9.15933995315754E-16  2.63097944374927E-02
 cg2d: Sum(rhs),rhsMax =   9.71445146547012E-17  2.79110497217142E-02
 cg2d: Sum(rhs),rhsMax =   1.38777878078145E-17  2.93538602383664E-02
 cg2d: Sum(rhs),rhsMax =   3.33066907387547E-16  3.06720439109423E-02
 cg2d: Sum(rhs),rhsMax =  -4.99600361081320E-16  3.19067816610536E-02
 cg2d: Sum(rhs),rhsMax =  -4.16333634234434E-17  3.30992667639499E-02
 cg2d: Sum(rhs),rhsMax =  -6.31439345255558E-16  3.42837432842201E-02
 cg2d: Sum(rhs),rhsMax =  -1.17961196366423E-16  3.54819650782976E-02
 cg2d: Sum(rhs),rhsMax =  -4.02455846426619E-16  3.66998058458972E-02
 cg2d: Sum(rhs),rhsMax =  -3.53883589099269E-16  3.79264045504640E-02
 cg2d: Sum(rhs),rhsMax =  -1.45716771982052E-16  3.91358858388561E-02
 cg2d: Sum(rhs),rhsMax =  -1.80411241501588E-16  4.02913639261801E-02
 cg2d: Sum(rhs),rhsMax =  -8.18789480661053E-16  4.13506294670109E-02
 cg2d: Sum(rhs),rhsMax =  -2.22044604925031E-16  4.22726606684742E-02
 cg2d: Sum(rhs),rhsMax =  -2.08166817117217E-16  4.30239435265244E-02
 cg2d: Sum(rhs),rhsMax =  -3.88578058618805E-16  4.35835862263463E-02
 cg2d: Sum(rhs),rhsMax =  -2.08166817117217E-16  4.39463978549371E-02
 cg2d: Sum(rhs),rhsMax =   1.38777878078145E-16  4.41234514687522E-02
 cg2d: Sum(rhs),rhsMax =   3.74700270810990E-16  4.41400962296584E-02
 cg2d: Sum(rhs),rhsMax =   5.55111512312578E-16  4.40318241364020E-02
 cg2d: Sum(rhs),rhsMax =   1.66533453693773E-16  4.38387397480459E-02
 cg2d: Sum(rhs),rhsMax =  -4.57966997657877E-16  4.54379564434545E-02
 cg2d: Sum(rhs),rhsMax =  -6.52256026967279E-16  4.77259345831477E-02
 cg2d: Sum(rhs),rhsMax =  -4.16333634234434E-16  4.99949947407192E-02
 cg2d: Sum(rhs),rhsMax =  -1.16573417585641E-15  5.22073351048866E-02
 cg2d: Sum(rhs),rhsMax =  -2.22044604925031E-16  5.43317160002372E-02
 cg2d: Sum(rhs),rhsMax =  -1.24900090270330E-16  5.63476439505484E-02
 cg2d: Sum(rhs),rhsMax =  -1.94289029309402E-16  5.82478252901776E-02
 cg2d: Sum(rhs),rhsMax =   1.66533453693773E-16  6.00385233032928E-02
 cg2d: Sum(rhs),rhsMax =  -3.05311331771918E-16  6.17377934916124E-02
 cg2d: Sum(rhs),rhsMax =   1.66533453693773E-16  6.33719188831750E-02
 cg2d: Sum(rhs),rhsMax =  -5.55111512312578E-17  6.49706567783974E-02
 cg2d: Sum(rhs),rhsMax =  -5.27355936696949E-16  6.65620861371268E-02
 cg2d: Sum(rhs),rhsMax =  -6.93889390390723E-16  6.81678818718649E-02
 cg2d: Sum(rhs),rhsMax =  -1.24900090270330E-15  6.97997402975090E-02
 cg2d: Sum(rhs),rhsMax =  -1.41553435639707E-15  7.14574674476168E-02
 cg2d: Sum(rhs),rhsMax =  -1.58206781009085E-15  7.31289635194147E-02
 cg2d: Sum(rhs),rhsMax =  -1.66533453693773E-15  7.47920407054669E-02
 cg2d: Sum(rhs),rhsMax =  -1.74860126378462E-15  7.64177411555024E-02
 cg2d: Sum(rhs),rhsMax =  -2.16493489801906E-15  7.79746106013342E-02
 cg2d: Sum(rhs),rhsMax =  -1.66533453693773E-15  7.94332555833646E-02
 cg2d: Sum(rhs),rhsMax =  -1.63757896132211E-15  8.07704834293989E-02
 cg2d: Sum(rhs),rhsMax =  -1.52655665885959E-15  8.19723990199665E-02
 cg2d: Sum(rhs),rhsMax =  -1.02695629777827E-15  8.30360026830601E-02
 cg2d: Sum(rhs),rhsMax =  -6.80011602582908E-16  8.39690756684005E-02
 cg2d: Sum(rhs),rhsMax =  -5.13478148889135E-16  8.47884155050402E-02
 cg2d: Sum(rhs),rhsMax =  -1.94289029309402E-16  8.55167463512555E-02
 cg2d: Sum(rhs),rhsMax =  -1.80411241501588E-16  8.61788332411815E-02
 cg2d: Sum(rhs),rhsMax =  -1.38777878078145E-17  8.67974392961796E-02
 cg2d: Sum(rhs),rhsMax =   6.24500451351651E-16  8.73897659407166E-02
 cg2d: Sum(rhs),rhsMax =   8.04911692853238E-16  8.79649137638420E-02
 cg2d: Sum(rhs),rhsMax =   7.63278329429795E-16  8.85227196936137E-02
 cg2d: Sum(rhs),rhsMax =   6.10622663543836E-16  8.90540992000183E-02
 cg2d: Sum(rhs),rhsMax =   3.74700270810990E-16  8.95427877954063E-02
 cg2d: Sum(rhs),rhsMax =   5.68989300120393E-16  8.99681683609922E-02
 cg2d: Sum(rhs),rhsMax =   7.42461647718073E-16  9.03087171850266E-02
 cg2d: Sum(rhs),rhsMax =   8.53483950180589E-16  9.05455210781511E-02
 cg2d: Sum(rhs),rhsMax =   9.36750677027476E-16  9.06653202817038E-02
 cg2d: Sum(rhs),rhsMax =   5.75928194024300E-16  9.06626164589074E-02
 cg2d: Sum(rhs),rhsMax =   6.86950496486816E-16  9.05405397431568E-02
 cg2d: Sum(rhs),rhsMax =   4.05925293378573E-16  9.03103701417029E-02
 cg2d: Sum(rhs),rhsMax =  -1.04083408558608E-17  8.99898242274081E-02
 cg2d: Sum(rhs),rhsMax =   1.26634813746307E-16  8.96004120364414E-02
 cg2d: Sum(rhs),rhsMax =   1.84748050191530E-16  8.91643088347430E-02
 cg2d: Sum(rhs),rhsMax =   1.21430643318376E-17  8.87012494829737E-02
 cg2d: Sum(rhs),rhsMax =  -9.02056207507940E-17  8.82259316756417E-02
 cg2d: Sum(rhs),rhsMax =  -5.89805981832114E-17  8.77463159036157E-02
 cg2d: Sum(rhs),rhsMax =  -1.80411241501588E-16  8.72630547578718E-02
 cg2d: Sum(rhs),rhsMax =  -2.91433543964104E-16  8.67700998922807E-02
 cg2d: Sum(rhs),rhsMax =  -5.48172618408671E-16  8.62563513524465E-02
 cg2d: Sum(rhs),rhsMax =  -3.92047505570758E-16  8.57080582095699E-02
 cg2d: Sum(rhs),rhsMax =  -8.15320033709099E-17  8.51115729176178E-02
 cg2d: Sum(rhs),rhsMax =  -1.23165366794353E-16  8.44560183072814E-02
 cg2d: Sum(rhs),rhsMax =   3.78169717762944E-16  8.37354506308109E-02
 cg2d: Sum(rhs),rhsMax =   5.03069808033274E-17  8.29501901320851E-02
 cg2d: Sum(rhs),rhsMax =  -9.84455572616838E-17  8.21071284256575E-02
 cg2d: Sum(rhs),rhsMax =  -6.76542155630955E-17  8.12189876975221E-02
 cg2d: Sum(rhs),rhsMax =  -2.69749500514394E-16  8.03026735601985E-02
 cg2d: Sum(rhs),rhsMax =  -3.20923843055709E-16  7.93770039758005E-02
 cg2d: Sum(rhs),rhsMax =  -5.96744875736022E-16  7.84601882554019E-02
 cg2d: Sum(rhs),rhsMax =  -5.56846235788555E-16  7.75674589250678E-02
 cg2d: Sum(rhs),rhsMax =  -2.42861286636753E-17  7.67092227067841E-02
 cg2d: Sum(rhs),rhsMax =   3.43475248243408E-16  7.58900036665366E-02
 cg2d: Sum(rhs),rhsMax =   7.07767178198537E-16  7.51083191866450E-02
 cg2d: Sum(rhs),rhsMax =   4.23272528138341E-16  7.43574803023902E-02
 cg2d: Sum(rhs),rhsMax =   4.37150315946155E-16  7.36271655782089E-02
 cg2d: Sum(rhs),rhsMax =   6.31439345255558E-16  7.29055030912946E-02
 cg2d: Sum(rhs),rhsMax =   7.14706072102445E-16  7.21813242235991E-02
 --> objf_test(bi,bj)   = -0.849803597943908E+00
 --> objf_tracer(bi,bj) =  0.000000000000000E+00
 --> objf_atl(bi,bj)    =  0.000000000000000E+00
  local fc = -0.849803597943908E+00
 global fc = -0.849803597943908E+00
 ph-check fcpertplus =  -0.849803598
 ph-check fcpertminus =  -0.849803598
(PID.TID 0000.0001)  MDSREADFIELD: opening global file: walls.bigRidge
(PID.TID 0000.0001) // =======================================================
(PID.TID 0000.0001) // Field Bottom depths (ini_depths) at iteration          1
(PID.TID 0000.0001) // CMIN =         -5.000000000000000E+03
(PID.TID 0000.0001) // CMAX =         -2.000000000000000E+03
(PID.TID 0000.0001) // CINT =          1.111111111111111E+02
(PID.TID 0000.0001) // SYMBOLS (CMIN->CMAX): -abcdefghijklmnopqrstuvwxyz+
(PID.TID 0000.0001) //                  0.0: .
(PID.TID 0000.0001) // RANGE I (Lo:Hi:Step):(  -1:   7:   1)
(PID.TID 0000.0001) // RANGE J (Lo:Hi:Step):(   7:  -1:  -1)
(PID.TID 0000.0001) // RANGE K (Lo:Hi:Step):(   1:   1:   1)
(PID.TID 0000.0001) // =======================================================
(PID.TID 0000.0001) K =   1
(PID.TID 0000.0001) //
(PID.TID 0000.0001) // |--J--|*01234567
(PID.TID 0000.0001) //      7 ----+----
(PID.TID 0000.0001) //      6 .........
(PID.TID 0000.0001) //      5 ----+----
(PID.TID 0000.0001) //      4 ----+----
(PID.TID 0000.0001) //      3 ----+----
(PID.TID 0000.0001) //      2 ----+----
(PID.TID 0000.0001) //      1 .........
(PID.TID 0000.0001) //      0 ----+----
(PID.TID 0000.0001) //     -1 ----+----
(PID.TID 0000.0001) // =======================================================
(PID.TID 0000.0001) // END OF FIELD                                          =
(PID.TID 0000.0001) // =======================================================
(PID.TID 0000.0001) 
(PID.TID 0000.0001) // =======================================================
(PID.TID 0000.0001) // Field Model R_low (ini_masks_etc) at iteration          1
(PID.TID 0000.0001) // CMIN =         -5.000000000000000E+03
(PID.TID 0000.0001) // CMAX =         -2.000000000000000E+03
(PID.TID 0000.0001) // CINT =          1.111111111111111E+02
(PID.TID 0000.0001) // SYMBOLS (CMIN->CMAX): -abcdefghijklmnopqrstuvwxyz+
(PID.TID 0000.0001) //                  0.0: .
(PID.TID 0000.0001) // RANGE I (Lo:Hi:Step):(  -1:   7:   1)
(PID.TID 0000.0001) // RANGE J (Lo:Hi:Step):(   7:  -1:  -1)
(PID.TID 0000.0001) // RANGE K (Lo:Hi:Step):(   1:   1:   1)
(PID.TID 0000.0001) // =======================================================
(PID.TID 0000.0001) K =   1
(PID.TID 0000.0001) //
(PID.TID 0000.0001) // |--J--|*01234567
(PID.TID 0000.0001) //      7 ----+----
(PID.TID 0000.0001) //      6 .........
(PID.TID 0000.0001) //      5 ----+----
(PID.TID 0000.0001) //      4 ----+----
(PID.TID 0000.0001) //      3 ----+----
(PID.TID 0000.0001) //      2 ----+----
(PID.TID 0000.0001) //      1 .........
(PID.TID 0000.0001) //      0 ----+----
(PID.TID 0000.0001) //     -1 ----+----
(PID.TID 0000.0001) // =======================================================
(PID.TID 0000.0001) // END OF FIELD                                          =
(PID.TID 0000.0001) // =======================================================
(PID.TID 0000.0001) 
(PID.TID 0000.0001) // =======================================================
(PID.TID 0000.0001) // Field Model Ro_surf (ini_masks_etc) at iteration          1
(PID.TID 0000.0001) // CMIN =          2.273736754432321E-13
(PID.TID 0000.0001) // CMAX =          2.273736754432321E-13
(PID.TID 0000.0001) // CINT =          0.000000000000000E+00
(PID.TID 0000.0001) // SYMBOLS (CMIN->CMAX): -abcdefghijklmnopqrstuvwxyz+
(PID.TID 0000.0001) //                  0.0: .
(PID.TID 0000.0001) // RANGE I (Lo:Hi:Step):(  -1:   7:   1)
(PID.TID 0000.0001) // RANGE J (Lo:Hi:Step):(   7:  -1:  -1)
(PID.TID 0000.0001) // RANGE K (Lo:Hi:Step):(   1:   1:   1)
(PID.TID 0000.0001) // =======================================================
(PID.TID 0000.0001) // =======================================================
(PID.TID 0000.0001) // END OF FIELD                                          =
(PID.TID 0000.0001) // =======================================================
(PID.TID 0000.0001) 
(PID.TID 0000.0001) // =======================================================
(PID.TID 0000.0001) // Field hFacC at iteration          1
(PID.TID 0000.0001) // CMIN =          1.000000000000000E+00
(PID.TID 0000.0001) // CMAX =          1.000000000000000E+00
(PID.TID 0000.0001) // CINT =          0.000000000000000E+00
(PID.TID 0000.0001) // SYMBOLS (CMIN->CMAX): -abcdefghijklmnopqrstuvwxyz+
(PID.TID 0000.0001) //                  0.0: .
(PID.TID 0000.0001) // RANGE I (Lo:Hi:Step):(  -1:   7:   1)
(PID.TID 0000.0001) // RANGE J (Lo:Hi:Step):(   7:  -1:  -1)
(PID.TID 0000.0001) // RANGE K (Lo:Hi:Step):(   1:   1:   1)
(PID.TID 0000.0001) // =======================================================
(PID.TID 0000.0001) // =======================================================
(PID.TID 0000.0001) // END OF FIELD                                          =
(PID.TID 0000.0001) // =======================================================
(PID.TID 0000.0001) 
(PID.TID 0000.0001) // =======================================================
(PID.TID 0000.0001) // Field hFacW at iteration          1
(PID.TID 0000.0001) // CMIN =          1.000000000000000E+00
(PID.TID 0000.0001) // CMAX =          1.000000000000000E+00
(PID.TID 0000.0001) // CINT =          0.000000000000000E+00
(PID.TID 0000.0001) // SYMBOLS (CMIN->CMAX): -abcdefghijklmnopqrstuvwxyz+
(PID.TID 0000.0001) //                  0.0: .
(PID.TID 0000.0001) // RANGE I (Lo:Hi:Step):(  -1:   7:   1)
(PID.TID 0000.0001) // RANGE J (Lo:Hi:Step):(   7:  -1:  -1)
(PID.TID 0000.0001) // RANGE K (Lo:Hi:Step):(   1:   1:   1)
(PID.TID 0000.0001) // =======================================================
(PID.TID 0000.0001) // =======================================================
(PID.TID 0000.0001) // END OF FIELD                                          =
(PID.TID 0000.0001) // =======================================================
(PID.TID 0000.0001) 
(PID.TID 0000.0001) // =======================================================
(PID.TID 0000.0001) // Field hFacS at iteration          1
(PID.TID 0000.0001) // CMIN =          1.000000000000000E+00
(PID.TID 0000.0001) // CMAX =          1.000000000000000E+00
(PID.TID 0000.0001) // CINT =          0.000000000000000E+00
(PID.TID 0000.0001) // SYMBOLS (CMIN->CMAX): -abcdefghijklmnopqrstuvwxyz+
(PID.TID 0000.0001) //                  0.0: .
(PID.TID 0000.0001) // RANGE I (Lo:Hi:Step):(  -1:   7:   1)
(PID.TID 0000.0001) // RANGE J (Lo:Hi:Step):(   7:  -1:  -1)
(PID.TID 0000.0001) // RANGE K (Lo:Hi:Step):(   1:   1:   1)
(PID.TID 0000.0001) // =======================================================
(PID.TID 0000.0001) // =======================================================
(PID.TID 0000.0001) // END OF FIELD                                          =
(PID.TID 0000.0001) // =======================================================
(PID.TID 0000.0001) 
(PID.TID 0000.0001) %MON surfExpanfCori_max           =  -1.0735540000000E-04
(PID.TID 0000.0001) %MON surfExpanfCori_min           =  -1.1783060000000E-04
(PID.TID 0000.0001) %MON surfExpanfCori_mean          =  -1.1259300000000E-04
(PID.TID 0000.0001) %MON surfExpanfCori_sd            =   3.7035424771427E-06
(PID.TID 0000.0001) %MON surfExpanfCoriG_max          =  -1.0866480000000E-04
(PID.TID 0000.0001) %MON surfExpanfCoriG_min          =  -1.1914000000000E-04
(PID.TID 0000.0001) %MON surfExpanfCoriG_mean         =  -1.1390240000000E-04
(PID.TID 0000.0001) %MON surfExpanfCoriG_sd           =   3.7035424771427E-06
(PID.TID 0000.0001) %MON surfExpanfCoriCos_max        =   0.0000000000000E+00
(PID.TID 0000.0001) %MON surfExpanfCoriCos_min        =   0.0000000000000E+00
(PID.TID 0000.0001) %MON surfExpanfCoriCos_mean       =   0.0000000000000E+00
(PID.TID 0000.0001) %MON surfExpanfCoriCos_sd         =   0.0000000000000E+00
(PID.TID 0000.0001) INI_CG2D: CG2D normalisation factor =  1.9999999999999996E-04
(PID.TID 0000.0001) 
                     ctrl_depth_ini: ctrl update R_low,
                                     adding the control vector.
(PID.TID 0000.0001)  MDSREADFIELD: opening file: xx_depth.0000000000.001.001.data
(PID.TID 0000.0001) // =======================================================
(PID.TID 0000.0001) // Field Model Ro_surf (update_masks_etc) at iteration          1
(PID.TID 0000.0001) // CMIN =          2.273736754432321E-13
(PID.TID 0000.0001) // CMAX =          2.273736754432321E-13
(PID.TID 0000.0001) // CINT =          0.000000000000000E+00
(PID.TID 0000.0001) // SYMBOLS (CMIN->CMAX): -abcdefghijklmnopqrstuvwxyz+
(PID.TID 0000.0001) //                  0.0: .
(PID.TID 0000.0001) // RANGE I (Lo:Hi:Step):(  -1:   7:   1)
(PID.TID 0000.0001) // RANGE J (Lo:Hi:Step):(   7:  -1:  -1)
(PID.TID 0000.0001) // RANGE K (Lo:Hi:Step):(   1:   1:   1)
(PID.TID 0000.0001) // =======================================================
(PID.TID 0000.0001) // =======================================================
(PID.TID 0000.0001) // END OF FIELD                                          =
(PID.TID 0000.0001) // =======================================================
(PID.TID 0000.0001) 
(PID.TID 0000.0001) // =======================================================
(PID.TID 0000.0001) // Field hFacC at iteration          1
(PID.TID 0000.0001) // CMIN =          1.000000000000000E+00
(PID.TID 0000.0001) // CMAX =          1.000000000000000E+00
(PID.TID 0000.0001) // CINT =          0.000000000000000E+00
(PID.TID 0000.0001) // SYMBOLS (CMIN->CMAX): -abcdefghijklmnopqrstuvwxyz+
(PID.TID 0000.0001) //                  0.0: .
(PID.TID 0000.0001) // RANGE I (Lo:Hi:Step):(  -1:   7:   1)
(PID.TID 0000.0001) // RANGE J (Lo:Hi:Step):(   7:  -1:  -1)
(PID.TID 0000.0001) // RANGE K (Lo:Hi:Step):(   1:   1:   1)
(PID.TID 0000.0001) // =======================================================
(PID.TID 0000.0001) // =======================================================
(PID.TID 0000.0001) // END OF FIELD                                          =
(PID.TID 0000.0001) // =======================================================
(PID.TID 0000.0001) 
(PID.TID 0000.0001) // =======================================================
(PID.TID 0000.0001) // Field hFacW at iteration          1
(PID.TID 0000.0001) // CMIN =          1.000000000000000E+00
(PID.TID 0000.0001) // CMAX =          1.000000000000000E+00
(PID.TID 0000.0001) // CINT =          0.000000000000000E+00
(PID.TID 0000.0001) // SYMBOLS (CMIN->CMAX): -abcdefghijklmnopqrstuvwxyz+
(PID.TID 0000.0001) //                  0.0: .
(PID.TID 0000.0001) // RANGE I (Lo:Hi:Step):(  -1:   7:   1)
(PID.TID 0000.0001) // RANGE J (Lo:Hi:Step):(   7:  -1:  -1)
(PID.TID 0000.0001) // RANGE K (Lo:Hi:Step):(   1:   1:   1)
(PID.TID 0000.0001) // =======================================================
(PID.TID 0000.0001) // =======================================================
(PID.TID 0000.0001) // END OF FIELD                                          =
(PID.TID 0000.0001) // =======================================================
(PID.TID 0000.0001) 
(PID.TID 0000.0001) // =======================================================
(PID.TID 0000.0001) // Field hFacS at iteration          1
(PID.TID 0000.0001) // CMIN =          1.000000000000000E+00
(PID.TID 0000.0001) // CMAX =          1.000000000000000E+00
(PID.TID 0000.0001) // CINT =          0.000000000000000E+00
(PID.TID 0000.0001) // SYMBOLS (CMIN->CMAX): -abcdefghijklmnopqrstuvwxyz+
(PID.TID 0000.0001) //                  0.0: .
(PID.TID 0000.0001) // RANGE I (Lo:Hi:Step):(  -1:   7:   1)
(PID.TID 0000.0001) // RANGE J (Lo:Hi:Step):(   7:  -1:  -1)
(PID.TID 0000.0001) // RANGE K (Lo:Hi:Step):(   1:   1:   1)
(PID.TID 0000.0001) // =======================================================
(PID.TID 0000.0001) // =======================================================
(PID.TID 0000.0001) // END OF FIELD                                          =
(PID.TID 0000.0001) // =======================================================
(PID.TID 0000.0001) 
(PID.TID 0000.0001) // =======================================================
(PID.TID 0000.0001) // Field Initial Temperature at iteration          1
(PID.TID 0000.0001) // CMIN =          4.000000000000000E+00
(PID.TID 0000.0001) // CMAX =          4.000000000000000E+00
(PID.TID 0000.0001) // CINT =          0.000000000000000E+00
(PID.TID 0000.0001) // SYMBOLS (CMIN->CMAX): -abcdefghijklmnopqrstuvwxyz+
(PID.TID 0000.0001) //                  0.0: .
(PID.TID 0000.0001) // RANGE I (Lo:Hi:Step):(   1:   5:   1)
(PID.TID 0000.0001) // RANGE J (Lo:Hi:Step):(   5:   1:  -1)
(PID.TID 0000.0001) // RANGE K (Lo:Hi:Step):(   1:   1:   1)
(PID.TID 0000.0001) // =======================================================
(PID.TID 0000.0001) // =======================================================
(PID.TID 0000.0001) // END OF FIELD                                          =
(PID.TID 0000.0001) // =======================================================
(PID.TID 0000.0001) 
(PID.TID 0000.0001) // =======================================================
(PID.TID 0000.0001) // Field Initial Salinity at iteration          1
(PID.TID 0000.0001) // CMIN =          3.500000000000000E+01
(PID.TID 0000.0001) // CMAX =          3.500000000000000E+01
(PID.TID 0000.0001) // CINT =          0.000000000000000E+00
(PID.TID 0000.0001) // SYMBOLS (CMIN->CMAX): -abcdefghijklmnopqrstuvwxyz+
(PID.TID 0000.0001) //                  0.0: .
(PID.TID 0000.0001) // RANGE I (Lo:Hi:Step):(   1:   5:   1)
(PID.TID 0000.0001) // RANGE J (Lo:Hi:Step):(   5:   1:  -1)
(PID.TID 0000.0001) // RANGE K (Lo:Hi:Step):(   1:   1:   1)
(PID.TID 0000.0001) // =======================================================
(PID.TID 0000.0001) // =======================================================
(PID.TID 0000.0001) // END OF FIELD                                          =
(PID.TID 0000.0001) // =======================================================
(PID.TID 0000.0001) 
(PID.TID 0000.0001) Start initial hydrostatic pressure computation
(PID.TID 0000.0001) Pressure is predetermined for buoyancyRelation OCEANIC
(PID.TID 0000.0001) 
(PID.TID 0000.0001)  MDSREADFIELD: opening global file: windx.sin_y
(PID.TID 0000.0001) // =======================================================
(PID.TID 0000.0001) // Model current state
(PID.TID 0000.0001) // =======================================================
(PID.TID 0000.0001) 
 cg2d: Sum(rhs),rhsMax =   0.00000000000000E+00  0.00000000000000E+00
 cg2d: Sum(rhs),rhsMax =   4.68375338513738E-16  2.62483626325265E-03
 cg2d: Sum(rhs),rhsMax =   3.76434994286967E-16  5.13362633360820E-03
 cg2d: Sum(rhs),rhsMax =   2.51534904016637E-16  7.16168459280808E-03
 cg2d: Sum(rhs),rhsMax =   6.80878964320897E-16  9.29466755986014E-03
 cg2d: Sum(rhs),rhsMax =   9.26342336171615E-16  1.15304356797511E-02
 cg2d: Sum(rhs),rhsMax =   6.98659879949659E-16  1.37809802353870E-02
 cg2d: Sum(rhs),rhsMax =   9.71445146547012E-16  1.60011247469289E-02
 cg2d: Sum(rhs),rhsMax =   5.20417042793042E-16  1.82027337912225E-02
 cg2d: Sum(rhs),rhsMax =   6.93889390390723E-17  2.04493560871551E-02
 cg2d: Sum(rhs),rhsMax =   2.08166817117217E-16  2.25706027739098E-02
 cg2d: Sum(rhs),rhsMax =   6.24500451351651E-16  2.45301657162020E-02
 cg2d: Sum(rhs),rhsMax =   9.15933995315754E-16  2.63097944374927E-02
 cg2d: Sum(rhs),rhsMax =   9.71445146547012E-17  2.79110497217142E-02
 cg2d: Sum(rhs),rhsMax =   1.38777878078145E-17  2.93538602383664E-02
 cg2d: Sum(rhs),rhsMax =   3.33066907387547E-16  3.06720439109423E-02
 cg2d: Sum(rhs),rhsMax =  -4.99600361081320E-16  3.19067816610536E-02
 cg2d: Sum(rhs),rhsMax =  -4.16333634234434E-17  3.30992667639499E-02
 cg2d: Sum(rhs),rhsMax =  -6.31439345255558E-16  3.42837432842201E-02
 cg2d: Sum(rhs),rhsMax =  -1.17961196366423E-16  3.54819650782976E-02
 cg2d: Sum(rhs),rhsMax =  -4.02455846426619E-16  3.66998058458972E-02
 cg2d: Sum(rhs),rhsMax =  -3.53883589099269E-16  3.79264045504640E-02
 cg2d: Sum(rhs),rhsMax =  -1.45716771982052E-16  3.91358858388561E-02
 cg2d: Sum(rhs),rhsMax =  -1.80411241501588E-16  4.02913639261801E-02
 cg2d: Sum(rhs),rhsMax =  -8.18789480661053E-16  4.13506294670109E-02
 cg2d: Sum(rhs),rhsMax =  -2.22044604925031E-16  4.22726606684742E-02
 cg2d: Sum(rhs),rhsMax =  -2.08166817117217E-16  4.30239435265244E-02
 cg2d: Sum(rhs),rhsMax =  -3.88578058618805E-16  4.35835862263463E-02
 cg2d: Sum(rhs),rhsMax =  -2.08166817117217E-16  4.39463978549371E-02
 cg2d: Sum(rhs),rhsMax =   1.38777878078145E-16  4.41234514687522E-02
 cg2d: Sum(rhs),rhsMax =   3.74700270810990E-16  4.41400962296584E-02
 cg2d: Sum(rhs),rhsMax =   5.55111512312578E-16  4.40318241364020E-02
 cg2d: Sum(rhs),rhsMax =   1.66533453693773E-16  4.38387397480459E-02
 cg2d: Sum(rhs),rhsMax =  -4.57966997657877E-16  4.54379564434545E-02
 cg2d: Sum(rhs),rhsMax =  -6.52256026967279E-16  4.77259345831477E-02
 cg2d: Sum(rhs),rhsMax =  -4.16333634234434E-16  4.99949947407192E-02
 cg2d: Sum(rhs),rhsMax =  -1.16573417585641E-15  5.22073351048866E-02
 cg2d: Sum(rhs),rhsMax =  -2.22044604925031E-16  5.43317160002372E-02
 cg2d: Sum(rhs),rhsMax =  -1.24900090270330E-16  5.63476439505484E-02
 cg2d: Sum(rhs),rhsMax =  -1.94289029309402E-16  5.82478252901776E-02
 cg2d: Sum(rhs),rhsMax =   1.66533453693773E-16  6.00385233032928E-02
 cg2d: Sum(rhs),rhsMax =  -3.05311331771918E-16  6.17377934916124E-02
 cg2d: Sum(rhs),rhsMax =   1.66533453693773E-16  6.33719188831750E-02
 cg2d: Sum(rhs),rhsMax =  -5.55111512312578E-17  6.49706567783974E-02
 cg2d: Sum(rhs),rhsMax =  -5.27355936696949E-16  6.65620861371268E-02
 cg2d: Sum(rhs),rhsMax =  -6.93889390390723E-16  6.81678818718649E-02
 cg2d: Sum(rhs),rhsMax =  -1.24900090270330E-15  6.97997402975090E-02
 cg2d: Sum(rhs),rhsMax =  -1.41553435639707E-15  7.14574674476168E-02
 cg2d: Sum(rhs),rhsMax =  -1.58206781009085E-15  7.31289635194147E-02
 cg2d: Sum(rhs),rhsMax =  -1.66533453693773E-15  7.47920407054669E-02
 cg2d: Sum(rhs),rhsMax =  -1.74860126378462E-15  7.64177411555024E-02
 cg2d: Sum(rhs),rhsMax =  -2.16493489801906E-15  7.79746106013342E-02
 cg2d: Sum(rhs),rhsMax =  -1.66533453693773E-15  7.94332555833646E-02
 cg2d: Sum(rhs),rhsMax =  -1.63757896132211E-15  8.07704834293989E-02
 cg2d: Sum(rhs),rhsMax =  -1.52655665885959E-15  8.19723990199665E-02
 cg2d: Sum(rhs),rhsMax =  -1.02695629777827E-15  8.30360026830601E-02
 cg2d: Sum(rhs),rhsMax =  -6.80011602582908E-16  8.39690756684005E-02
 cg2d: Sum(rhs),rhsMax =  -5.13478148889135E-16  8.47884155050402E-02
 cg2d: Sum(rhs),rhsMax =  -1.94289029309402E-16  8.55167463512555E-02
 cg2d: Sum(rhs),rhsMax =  -1.80411241501588E-16  8.61788332411815E-02
 cg2d: Sum(rhs),rhsMax =  -1.38777878078145E-17  8.67974392961796E-02
 cg2d: Sum(rhs),rhsMax =   6.24500451351651E-16  8.73897659407166E-02
 cg2d: Sum(rhs),rhsMax =   8.04911692853238E-16  8.79649137638420E-02
 cg2d: Sum(rhs),rhsMax =   7.63278329429795E-16  8.85227196936137E-02
 cg2d: Sum(rhs),rhsMax =   6.10622663543836E-16  8.90540992000183E-02
 cg2d: Sum(rhs),rhsMax =   3.74700270810990E-16  8.95427877954063E-02
 cg2d: Sum(rhs),rhsMax =   5.68989300120393E-16  8.99681683609922E-02
 cg2d: Sum(rhs),rhsMax =   7.42461647718073E-16  9.03087171850266E-02
 cg2d: Sum(rhs),rhsMax =   8.53483950180589E-16  9.05455210781511E-02
 cg2d: Sum(rhs),rhsMax =   9.36750677027476E-16  9.06653202817038E-02
 cg2d: Sum(rhs),rhsMax =   5.75928194024300E-16  9.06626164589074E-02
 cg2d: Sum(rhs),rhsMax =   6.86950496486816E-16  9.05405397431568E-02
 cg2d: Sum(rhs),rhsMax =   4.05925293378573E-16  9.03103701417029E-02
 cg2d: Sum(rhs),rhsMax =  -1.04083408558608E-17  8.99898242274081E-02
 cg2d: Sum(rhs),rhsMax =   1.26634813746307E-16  8.96004120364414E-02
 cg2d: Sum(rhs),rhsMax =   1.84748050191530E-16  8.91643088347430E-02
 cg2d: Sum(rhs),rhsMax =   1.21430643318376E-17  8.87012494829737E-02
 cg2d: Sum(rhs),rhsMax =  -9.02056207507940E-17  8.82259316756417E-02
 cg2d: Sum(rhs),rhsMax =  -5.89805981832114E-17  8.77463159036157E-02
 cg2d: Sum(rhs),rhsMax =  -1.80411241501588E-16  8.72630547578718E-02
 cg2d: Sum(rhs),rhsMax =  -2.91433543964104E-16  8.67700998922807E-02
 cg2d: Sum(rhs),rhsMax =  -5.48172618408671E-16  8.62563513524465E-02
 cg2d: Sum(rhs),rhsMax =  -3.92047505570758E-16  8.57080582095699E-02
 cg2d: Sum(rhs),rhsMax =  -8.15320033709099E-17  8.51115729176178E-02
 cg2d: Sum(rhs),rhsMax =  -1.23165366794353E-16  8.44560183072814E-02
 cg2d: Sum(rhs),rhsMax =   3.78169717762944E-16  8.37354506308109E-02
 cg2d: Sum(rhs),rhsMax =   5.03069808033274E-17  8.29501901320851E-02
 cg2d: Sum(rhs),rhsMax =  -9.84455572616838E-17  8.21071284256575E-02
 cg2d: Sum(rhs),rhsMax =  -6.76542155630955E-17  8.12189876975221E-02
 cg2d: Sum(rhs),rhsMax =  -2.69749500514394E-16  8.03026735601985E-02
 cg2d: Sum(rhs),rhsMax =  -3.20923843055709E-16  7.93770039758005E-02
 cg2d: Sum(rhs),rhsMax =  -5.96744875736022E-16  7.84601882554019E-02
 cg2d: Sum(rhs),rhsMax =  -5.56846235788555E-16  7.75674589250678E-02
 cg2d: Sum(rhs),rhsMax =  -2.42861286636753E-17  7.67092227067841E-02
 cg2d: Sum(rhs),rhsMax =   3.43475248243408E-16  7.58900036665366E-02
 cg2d: Sum(rhs),rhsMax =   7.07767178198537E-16  7.51083191866450E-02
 cg2d: Sum(rhs),rhsMax =   4.23272528138341E-16  7.43574803023902E-02
 cg2d: Sum(rhs),rhsMax =   4.37150315946155E-16  7.36271655782089E-02
 cg2d: Sum(rhs),rhsMax =   6.31439345255558E-16  7.29055030912946E-02
 cg2d: Sum(rhs),rhsMax =   7.14706072102445E-16  7.21813242235991E-02
 --> objf_test(bi,bj)   = -0.849803597943908E+00
 --> objf_tracer(bi,bj) =  0.000000000000000E+00
 --> objf_atl(bi,bj)    =  0.000000000000000E+00
  local fc = -0.849803597943908E+00
 global fc = -0.849803597943908E+00
 ph-grd  ierr ---------------------------
 ph-grd  ierr =  -3, icomp =  25, ichknum =  25
(PID.TID 0000.0001) 
(PID.TID 0000.0001) // =======================================================
(PID.TID 0000.0001) // Gradient check results  >>> START <<<
(PID.TID 0000.0001) // =======================================================
(PID.TID 0000.0001) 
(PID.TID 0000.0001) 
(PID.TID 0000.0001)  EPS =  0.100E-03
(PID.TID 0000.0001) grdchk output:            procId               I        ITILEPOS        JTILEPOS           LAYER            X(I)      X(I)+/-EPS
(PID.TID 0000.0001) grdchk output:                                FC             FC1             FC2 FC1-FC2/(2*EPS)    ADJ GRAD(FC)   1-FDGRD/ADGRD
(PID.TID 0000.0001) grdchk output:                 0               1               1               2               1 0.000000000E+00 -.100000000E-03
(PID.TID 0000.0001) grdchk output:                   -.849803598E+00 -.849803587E+00 -.849803609E+00 0.112135528E-03 0.112135970E-03 0.394808400E-05
(PID.TID 0000.0001) 
(PID.TID 0000.0001) grdchk output:                 0               2               2               2               1 0.000000000E+00 -.100000000E-03
(PID.TID 0000.0001) grdchk output:                   -.849803598E+00 -.849803596E+00 -.849803600E+00 0.171322229E-04 0.171268159E-04 -.315700038E-03
(PID.TID 0000.0001) 
(PID.TID 0000.0001) grdchk output:                 0               3               3               2               1 0.000000000E+00 -.100000000E-03
(PID.TID 0000.0001) grdchk output:                   -.849803598E+00 -.849803618E+00 -.849803578E+00 -.198279122E-03 -.198323305E-03 0.222781474E-03
(PID.TID 0000.0001) 
(PID.TID 0000.0001) grdchk output:                 0               4               4               2               1 0.000000000E+00 -.100000000E-03
(PID.TID 0000.0001) grdchk output:                   -.849803598E+00 -.849803609E+00 -.849803587E+00 -.113927343E-03 -.113918914E-03 -.739960810E-04
(PID.TID 0000.0001) 
(PID.TID 0000.0001) grdchk output:                 0               5               5               2               1 0.000000000E+00 -.100000000E-03
(PID.TID 0000.0001) grdchk output:                   -.849803598E+00 -.849803589E+00 -.849803607E+00 0.868484318E-04 0.868497016E-04 0.146210012E-04
(PID.TID 0000.0001) 
(PID.TID 0000.0001) grdchk output:                 0               6               1               3               1 0.000000000E+00 -.100000000E-03
(PID.TID 0000.0001) grdchk output:                   -.849803598E+00 -.849803596E+00 -.849803600E+00 0.191683958E-04 0.191670245E-04 -.715415155E-04
(PID.TID 0000.0001) 
(PID.TID 0000.0001) grdchk output:                 0               7               2               3               1 0.000000000E+00 -.100000000E-03
(PID.TID 0000.0001) grdchk output:                   -.849803598E+00 -.849803560E+00 -.849803636E+00 0.379980630E-03 0.379980860E-03 0.604832872E-06
(PID.TID 0000.0001) 
(PID.TID 0000.0001) grdchk output:                 0               8               3               3               1 0.000000000E+00 -.100000000E-03
(PID.TID 0000.0001) grdchk output:                   -.849803598E+00 -.849803505E+00 -.849803691E+00 0.930078475E-03 0.930034728E-03 -.470382508E-04
(PID.TID 0000.0001) 
(PID.TID 0000.0001) grdchk output:                 0               9               4               3               1 0.000000000E+00 -.100000000E-03
(PID.TID 0000.0001) grdchk output:                   -.849803598E+00 -.849803575E+00 -.849803621E+00 0.230080756E-03 0.230079855E-03 -.391326736E-05
(PID.TID 0000.0001) 
(PID.TID 0000.0001) grdchk output:                 0              10               5               3               1 0.000000000E+00 -.100000000E-03
(PID.TID 0000.0001) grdchk output:                   -.849803598E+00 -.849803596E+00 -.849803600E+00 0.174231712E-04 0.174233817E-04 0.120768546E-04
(PID.TID 0000.0001) 
(PID.TID 0000.0001) grdchk output:                 0              11               1               4               1 0.000000000E+00 -.100000000E-03
(PID.TID 0000.0001) grdchk output:                   -.849803598E+00 -.849803601E+00 -.849803595E+00 -.329826921E-04 -.329829618E-04 0.817573922E-05
(PID.TID 0000.0001) 
(PID.TID 0000.0001) grdchk output:                 0              12               2               4               1 0.000000000E+00 -.100000000E-03
(PID.TID 0000.0001) grdchk output:                   -.849803598E+00 -.849803573E+00 -.849803623E+00 0.247790798E-03 0.247788983E-03 -.732572053E-05
(PID.TID 0000.0001) 
(PID.TID 0000.0001) grdchk output:                 0              13               3               4               1 0.000000000E+00 -.100000000E-03
(PID.TID 0000.0001) grdchk output:                   -.849803598E+00 -.849803514E+00 -.849803682E+00 0.844176499E-03 0.844153768E-03 -.269282573E-04
(PID.TID 0000.0001) 
(PID.TID 0000.0001) grdchk output:                 0              14               4               4               1 0.000000000E+00 -.100000000E-03
(PID.TID 0000.0001) grdchk output:                   -.849803598E+00 -.849803587E+00 -.849803609E+00 0.108240458E-03 0.108231598E-03 -.818674696E-04
(PID.TID 0000.0001) 
(PID.TID 0000.0001) grdchk output:                 0              15               5               4               1 0.000000000E+00 -.100000000E-03
(PID.TID 0000.0001) grdchk output:                   -.849803598E+00 -.849803621E+00 -.849803575E+00 -.228651543E-03 -.228653698E-03 0.942528996E-05
(PID.TID 0000.0001) 
(PID.TID 0000.0001) grdchk output:                 0              16               1               5               1 0.000000000E+00 -.100000000E-03
(PID.TID 0000.0001) grdchk output:                   -.849803598E+00 -.849803602E+00 -.849803594E+00 -.417855350E-04 -.417892130E-04 0.880130523E-04
(PID.TID 0000.0001) 
(PID.TID 0000.0001) grdchk output:                 0              17               2               5               1 0.000000000E+00 -.100000000E-03
(PID.TID 0000.0001) grdchk output:                   -.849803598E+00 -.849803591E+00 -.849803604E+00 0.652825366E-04 0.652647826E-04 -.272029671E-03
(PID.TID 0000.0001) 
(PID.TID 0000.0001) grdchk output:                 0              18               3               5               1 0.000000000E+00 -.100000000E-03
(PID.TID 0000.0001) grdchk output:                   -.849803598E+00 -.849803563E+00 -.849803633E+00 0.348127607E-03 0.348105528E-03 -.634282353E-04
(PID.TID 0000.0001) 
(PID.TID 0000.0001) grdchk output:                 0              19               4               5               1 0.000000000E+00 -.100000000E-03
(PID.TID 0000.0001) grdchk output:                   -.849803598E+00 -.849803599E+00 -.849803597E+00 -.141776951E-04 -.141677634E-04 -.701008409E-03
(PID.TID 0000.0001) 
(PID.TID 0000.0001) grdchk output:                 0              20               5               5               1 0.000000000E+00 -.100000000E-03
(PID.TID 0000.0001) grdchk output:                   -.849803598E+00 -.849803616E+00 -.849803580E+00 -.183051828E-03 -.183052421E-03 0.323985508E-05
(PID.TID 0000.0001) 
(PID.TID 0000.0001) grdchk output:                 0              21               0               0               0 0.000000000E+00 0.000000000E+00
(PID.TID 0000.0001) grdchk output:                   0.000000000E+00 0.000000000E+00 0.000000000E+00 0.000000000E+00 0.000000000E+00 0.000000000E+00
(PID.TID 0000.0001) 
(PID.TID 0000.0001) grdchk output:                 0              22               0               0               0 0.000000000E+00 0.000000000E+00
(PID.TID 0000.0001) grdchk output:                   0.000000000E+00 0.000000000E+00 0.000000000E+00 0.000000000E+00 0.000000000E+00 0.000000000E+00
(PID.TID 0000.0001) 
(PID.TID 0000.0001) grdchk output:                 0              23               0               0               0 0.000000000E+00 0.000000000E+00
(PID.TID 0000.0001) grdchk output:                   0.000000000E+00 0.000000000E+00 0.000000000E+00 0.000000000E+00 0.000000000E+00 0.000000000E+00
(PID.TID 0000.0001) 
(PID.TID 0000.0001) grdchk output:                 0              24               0               0               0 0.000000000E+00 0.000000000E+00
(PID.TID 0000.0001) grdchk output:                   0.000000000E+00 0.000000000E+00 0.000000000E+00 0.000000000E+00 0.000000000E+00 0.000000000E+00
(PID.TID 0000.0001) 
(PID.TID 0000.0001) grdchk output:                 0              25               0               0               0 0.000000000E+00 0.000000000E+00
(PID.TID 0000.0001) grdchk output:                   0.000000000E+00 0.000000000E+00 0.000000000E+00 0.000000000E+00 0.000000000E+00 0.000000000E+00
(PID.TID 0000.0001) 
(PID.TID 0000.0001) 
(PID.TID 0000.0001) // =======================================================
(PID.TID 0000.0001) // Gradient check results  >>> END <<<
(PID.TID 0000.0001) // =======================================================
(PID.TID 0000.0001) 
(PID.TID 0000.0001) %CHECKPOINT        20 ckptA
(PID.TID 0000.0001)   Seconds in section "ALL                    [THE_MODEL_MAIN]":
(PID.TID 0000.0001)           User time:  9.65660286
(PID.TID 0000.0001)         System time:  0.724044987
(PID.TID 0000.0001)     Wall clock time:  10.384227
(PID.TID 0000.0001)          No. starts: 1
(PID.TID 0000.0001)           No. stops: 1
(PID.TID 0000.0001)   Seconds in section "INITIALISE_FIXED       [THE_MODEL_MAIN]":
(PID.TID 0000.0001)           User time:  0.0360019989
(PID.TID 0000.0001)         System time:  0.
(PID.TID 0000.0001)     Wall clock time:  0.0348210335
(PID.TID 0000.0001)          No. starts: 1
(PID.TID 0000.0001)           No. stops: 1
(PID.TID 0000.0001)   Seconds in section "ADTHE_MAIN_LOOP          [ADJOINT RUN]":
(PID.TID 0000.0001)           User time:  0.844053011
(PID.TID 0000.0001)         System time:  0.064003997
(PID.TID 0000.0001)     Wall clock time:  0.908462048
(PID.TID 0000.0001)          No. starts: 1
(PID.TID 0000.0001)           No. stops: 1
(PID.TID 0000.0001)   Seconds in section "EXTERNAL_FIELDS_LOAD[FORWARD_STEP]":
(PID.TID 0000.0001)           User time:  0.176013649
(PID.TID 0000.0001)         System time:  0.0400050133
(PID.TID 0000.0001)     Wall clock time:  0.172046423
(PID.TID 0000.0001)          No. starts: 5200
(PID.TID 0000.0001)           No. stops: 5200
(PID.TID 0000.0001)   Seconds in section "DO_ATMOSPHERIC_PHYS [FORWARD_STEP]":
(PID.TID 0000.0001)           User time:  0.152010739
(PID.TID 0000.0001)         System time:  0.00800099969
(PID.TID 0000.0001)     Wall clock time:  0.171912432
(PID.TID 0000.0001)          No. starts: 5200
(PID.TID 0000.0001)           No. stops: 5200
(PID.TID 0000.0001)   Seconds in section "DO_OCEANIC_PHYS     [FORWARD_STEP]":
(PID.TID 0000.0001)           User time:  0.368020404
(PID.TID 0000.0001)         System time:  0.0240010545
(PID.TID 0000.0001)     Wall clock time:  0.427778721
(PID.TID 0000.0001)          No. starts: 5200
(PID.TID 0000.0001)           No. stops: 5200
(PID.TID 0000.0001)   Seconds in section "THERMODYNAMICS      [FORWARD_STEP]":
(PID.TID 0000.0001)           User time:  0.704037338
(PID.TID 0000.0001)         System time:  0.00400000811
(PID.TID 0000.0001)     Wall clock time:  0.704702377
(PID.TID 0000.0001)          No. starts: 5200
(PID.TID 0000.0001)           No. stops: 5200
(PID.TID 0000.0001)   Seconds in section "DYNAMICS            [FORWARD_STEP]":
(PID.TID 0000.0001)           User time:  1.78810311
(PID.TID 0000.0001)         System time:  0.0320040286
(PID.TID 0000.0001)     Wall clock time:  1.8194418
(PID.TID 0000.0001)          No. starts: 5200
(PID.TID 0000.0001)           No. stops: 5200
(PID.TID 0000.0001)   Seconds in section "SOLVE_FOR_PRESSURE  [FORWARD_STEP]":
(PID.TID 0000.0001)           User time:  1.47609601
(PID.TID 0000.0001)         System time:  0.044004038
(PID.TID 0000.0001)     Wall clock time:  1.44869852
(PID.TID 0000.0001)          No. starts: 5200
(PID.TID 0000.0001)           No. stops: 5200
(PID.TID 0000.0001)   Seconds in section "MOM_CORRECTION_STEP [FORWARD_STEP]":
(PID.TID 0000.0001)           User time:  0.196009427
(PID.TID 0000.0001)         System time:  0.0200010017
(PID.TID 0000.0001)     Wall clock time:  0.220625162
(PID.TID 0000.0001)          No. starts: 5200
(PID.TID 0000.0001)           No. stops: 5200
(PID.TID 0000.0001)   Seconds in section "TRC_CORRECTION_STEP [FORWARD_STEP]":
(PID.TID 0000.0001)           User time:  0.14801088
(PID.TID 0000.0001)         System time:  0.0200000405
(PID.TID 0000.0001)     Wall clock time:  0.186942577
(PID.TID 0000.0001)          No. starts: 5200
(PID.TID 0000.0001)           No. stops: 5200
(PID.TID 0000.0001)   Seconds in section "BLOCKING_EXCHANGES  [FORWARD_STEP]":
(PID.TID 0000.0001)           User time:  0.404022716
(PID.TID 0000.0001)         System time:  0.0120000243
(PID.TID 0000.0001)     Wall clock time:  0.433184624
(PID.TID 0000.0001)          No. starts: 5200
(PID.TID 0000.0001)           No. stops: 5200
(PID.TID 0000.0001)   Seconds in section "DO_STATEVARS_TAVE   [FORWARD_STEP]":
(PID.TID 0000.0001)           User time:  0.164009966
(PID.TID 0000.0001)         System time:  0.0280010104
(PID.TID 0000.0001)     Wall clock time:  0.176174879
(PID.TID 0000.0001)          No. starts: 5200
(PID.TID 0000.0001)           No. stops: 5200
(PID.TID 0000.0001)   Seconds in section "MONITOR             [FORWARD_STEP]":
(PID.TID 0000.0001)           User time:  0.260013729
(PID.TID 0000.0001)         System time:  0.016000025
(PID.TID 0000.0001)     Wall clock time:  0.302521467
(PID.TID 0000.0001)          No. starts: 5200
(PID.TID 0000.0001)           No. stops: 5200
(PID.TID 0000.0001)   Seconds in section "COST_TILE           [FORWARD_STEP]":
(PID.TID 0000.0001)           User time:  0.240012549
(PID.TID 0000.0001)         System time:  0.0240009278
(PID.TID 0000.0001)     Wall clock time:  0.20476675
(PID.TID 0000.0001)          No. starts: 5200
(PID.TID 0000.0001)           No. stops: 5200
(PID.TID 0000.0001)   Seconds in section "DO_THE_MODEL_IO     [FORWARD_STEP]":
(PID.TID 0000.0001)           User time:  0.244018666
(PID.TID 0000.0001)         System time:  0.100006938
(PID.TID 0000.0001)     Wall clock time:  0.291024446
(PID.TID 0000.0001)          No. starts: 5200
(PID.TID 0000.0001)           No. stops: 5200
(PID.TID 0000.0001)   Seconds in section "WRITE_CHECKPOINT    [FORWARD_STEP]":
(PID.TID 0000.0001)           User time:  0.120011181
(PID.TID 0000.0001)         System time:  0.00800000131
(PID.TID 0000.0001)     Wall clock time:  0.173980236
(PID.TID 0000.0001)          No. starts: 5200
(PID.TID 0000.0001)           No. stops: 5200
(PID.TID 0000.0001)   Seconds in section "CTRL_PACK           [THE_MODEL_MAIN]":
(PID.TID 0000.0001)           User time:  0.
(PID.TID 0000.0001)         System time:  0.
(PID.TID 0000.0001)     Wall clock time:  0.00118494034
(PID.TID 0000.0001)          No. starts: 1
(PID.TID 0000.0001)           No. stops: 1
(PID.TID 0000.0001)   Seconds in section "GRDCHK_MAIN         [THE_MODEL_MAIN]":
(PID.TID 0000.0001)           User time:  8.77254814
(PID.TID 0000.0001)         System time:  0.66004099
(PID.TID 0000.0001)     Wall clock time:  9.43649697
(PID.TID 0000.0001)          No. starts: 1
(PID.TID 0000.0001)           No. stops: 1
(PID.TID 0000.0001)   Seconds in section "ADJOINT SPIN-UP":
(PID.TID 0000.0001)           User time:  0.344019473
(PID.TID 0000.0001)         System time:  0.0600029826
(PID.TID 0000.0001)     Wall clock time:  0.399970531
(PID.TID 0000.0001)          No. starts: 50
(PID.TID 0000.0001)           No. stops: 50
(PID.TID 0000.0001)   Seconds in section "INITIALISE_VARIA    [THE_MAIN_LOOP]":
(PID.TID 0000.0001)           User time:  0.284016907
(PID.TID 0000.0001)         System time:  0.0280009881
(PID.TID 0000.0001)     Wall clock time:  0.305803299
(PID.TID 0000.0001)          No. starts: 50
(PID.TID 0000.0001)           No. stops: 50
(PID.TID 0000.0001)   Seconds in section "MONITOR             [THE_MAIN_LOOP]":
(PID.TID 0000.0001)           User time:  0.
(PID.TID 0000.0001)         System time:  0.
(PID.TID 0000.0001)     Wall clock time:  0.00167870522
(PID.TID 0000.0001)          No. starts: 50
(PID.TID 0000.0001)           No. stops: 50
(PID.TID 0000.0001)   Seconds in section "DO_THE_MODEL_IO     [THE_MAIN_LOOP]":
(PID.TID 0000.0001)           User time:  0.0440015793
(PID.TID 0000.0001)         System time:  0.0320019946
(PID.TID 0000.0001)     Wall clock time:  0.0857493877
(PID.TID 0000.0001)          No. starts: 50
(PID.TID 0000.0001)           No. stops: 50
(PID.TID 0000.0001)   Seconds in section "MAIN LOOP           [THE_MAIN_LOOP]":
(PID.TID 0000.0001)           User time:  8.42452896
(PID.TID 0000.0001)         System time:  0.592037991
(PID.TID 0000.0001)     Wall clock time:  9.00407457
(PID.TID 0000.0001)          No. starts: 50
(PID.TID 0000.0001)           No. stops: 50
(PID.TID 0000.0001)   Seconds in section "FORWARD_STEP        [THE_MAIN_LOOP]":
(PID.TID 0000.0001)           User time:  8.2685169
(PID.TID 0000.0001)         System time:  0.576037973
(PID.TID 0000.0001)     Wall clock time:  8.8290391
(PID.TID 0000.0001)          No. starts: 5000
(PID.TID 0000.0001)           No. stops: 5000
(PID.TID 0000.0001)   Seconds in section "COST_FINAL           [THE_MAIN_LOOP]":
(PID.TID 0000.0001)           User time:  0.0039999485
(PID.TID 0000.0001)         System time:  0.
(PID.TID 0000.0001)     Wall clock time:  0.00337123871
(PID.TID 0000.0001)          No. starts: 50
(PID.TID 0000.0001)           No. stops: 50
(PID.TID 0000.0001)   Seconds in section "WRITE_CHECKPOINT       [THE_MODEL_MAIN]":
(PID.TID 0000.0001)           User time:  0.00399971008
(PID.TID 0000.0001)         System time:  0.
(PID.TID 0000.0001)     Wall clock time:  0.00303220749
(PID.TID 0000.0001)          No. starts: 1
(PID.TID 0000.0001)           No. stops: 1
(PID.TID 0000.0001) // ======================================================
(PID.TID 0000.0001) // Tile <-> Tile communication statistics
(PID.TID 0000.0001) // ======================================================
(PID.TID 0000.0001) // o Tile number: 000001
(PID.TID 0000.0001) //         No. X exchanges =              0
(PID.TID 0000.0001) //            Max. X spins =              0
(PID.TID 0000.0001) //            Min. X spins =     1000000000
(PID.TID 0000.0001) //          Total. X spins =              0
(PID.TID 0000.0001) //            Avg. X spins =       0.00E+00
(PID.TID 0000.0001) //         No. Y exchanges =              0
(PID.TID 0000.0001) //            Max. Y spins =              0
(PID.TID 0000.0001) //            Min. Y spins =     1000000000
(PID.TID 0000.0001) //          Total. Y spins =              0
(PID.TID 0000.0001) //            Avg. Y spins =       0.00E+00
(PID.TID 0000.0001) // o Thread number: 000001
(PID.TID 0000.0001) //            No. barriers =        1172694
(PID.TID 0000.0001) //      Max. barrier spins =              1
(PID.TID 0000.0001) //      Min. barrier spins =              1
(PID.TID 0000.0001) //     Total barrier spins =        1172694
(PID.TID 0000.0001) //      Avg. barrier spins =       1.00E+00
