(PID.TID 0000.0001) 
(PID.TID 0000.0001) // ======================================================
(PID.TID 0000.0001) //                      MITgcm UV
(PID.TID 0000.0001) //                      =========
(PID.TID 0000.0001) // ======================================================
(PID.TID 0000.0001) // execution environment starting up...
(PID.TID 0000.0001) // Run starting Wed Apr  1 14:19:48 1998
(PID.TID 0000.0001) // on melville.lcs.mit.edu
(PID.TID 0000.0001) // account cnh
(PID.TID 0000.0001) // MITgcm UV Release: $Name:  $
(PID.TID 0000.0001) 
(PID.TID 0000.0001) // =======================================================
(PID.TID 0000.0001) // Execution Environment parameter file "eedata"
(PID.TID 0000.0001) // =======================================================
(PID.TID 0000.0001) ># Example "eedata" file
(PID.TID 0000.0001) ># Lines beginning "#" are comments
(PID.TID 0000.0001) ># nTx - No. threads per process in X
(PID.TID 0000.0001) ># nTy - No. threads per process in Y
(PID.TID 0000.0001) > &EEPARMS
(PID.TID 0000.0001) > nTx=1,nTy=1
(PID.TID 0000.0001) > &
(PID.TID 0000.0001) ># Note: Some systems use & as the
(PID.TID 0000.0001) ># namelist terminator. Other systems
(PID.TID 0000.0001) ># use a / character (as shown here).
(PID.TID 0000.0001) 
(PID.TID 0000.0001) // =======================================================
(PID.TID 0000.0001) // Computational Grid Specification ( see files "SIZE.h" )
(PID.TID 0000.0001) //                                  ( and "eedata"       )
(PID.TID 0000.0001) // =======================================================
(PID.TID 0000.0001)      nPx =    1 ; /* No. processes in X */
(PID.TID 0000.0001)      nPy =    1 ; /* No. processes in Y */
(PID.TID 0000.0001)      nSx =    1 ; /* No. tiles in X per process */
(PID.TID 0000.0001)      nSy =    1 ; /* No. tiles in Y per process */
(PID.TID 0000.0001)      sNx =   20 ; /* Tile size in X */
(PID.TID 0000.0001)      sNy =   16 ; /* Tile size in Y */
(PID.TID 0000.0001)      OLx =    4 ; /* Tile overlap distance in X */
(PID.TID 0000.0001)      OLy =    4 ; /* Tile overlap distance in Y */
(PID.TID 0000.0001)      nTx =    1 ; /* No. threads in X per process */
(PID.TID 0000.0001)      nTy =    1 ; /* No. threads in Y per process */
(PID.TID 0000.0001)       Nr =   23 ; /* No. levels in the vertical   */
(PID.TID 0000.0001)       nX =   20 ; /* Total domain size in X ( = nPx*nSx*sNx ) */
(PID.TID 0000.0001)       nY =   16 ; /* Total domain size in Y ( = nPy*nSy*sNy ) */
(PID.TID 0000.0001)   nTiles =    1 ; /* Total no. tiles per process ( = nSx*nSy ) */
(PID.TID 0000.0001)   nProcs =    1 ; /* Total no. processes ( = nPx*nPy ) */
(PID.TID 0000.0001) nThreads =    1 ; /* Total no. threads per process ( = nTx*nTy ) */
(PID.TID 0000.0001) usingMPI =    F ; /* Flag used to control whether MPI is in use */
(PID.TID 0000.0001)                   /*  note: To execute a program with MPI calls */
(PID.TID 0000.0001)                   /*  it must be launched appropriately e.g     */
(PID.TID 0000.0001)                   /*  "mpirun -np 64 ......"                    */
(PID.TID 0000.0001) 
(PID.TID 0000.0001) // ======================================================
(PID.TID 0000.0001) // Mapping of tiles to threads
(PID.TID 0000.0001) // ======================================================
(PID.TID 0000.0001) // -o- Thread   1, tiles (   1:   1,   1:   1)
(PID.TID 0000.0001) 
(PID.TID 0000.0001) // ======================================================
(PID.TID 0000.0001) // Tile <-> Tile connectvity table
(PID.TID 0000.0001) // ======================================================
(PID.TID 0000.0001) // Tile number: 000001 (process no. = 000001)
(PID.TID 0000.0001) //        WEST: Tile = 000001, Process = 000001, Comm = put
(PID.TID 0000.0001) //                bi = 000001, bj = 000001
(PID.TID 0000.0001) //        EAST: Tile = 000001, Process = 000001, Comm = put
(PID.TID 0000.0001) //                bi = 000001, bj = 000001
(PID.TID 0000.0001) //       SOUTH: Tile = 000001, Process = 000001, Comm = put
(PID.TID 0000.0001) //                bi = 000001, bj = 000001
(PID.TID 0000.0001) //       NORTH: Tile = 000001, Process = 000001, Comm = put
(PID.TID 0000.0001) //                bi = 000001, bj = 000001
(PID.TID 0000.0001) 
(PID.TID 0000.0001) // =======================================================
(PID.TID 0000.0001) // Model parameter file "data"
(PID.TID 0000.0001) // =======================================================
(PID.TID 0000.0001) ># ====================
(PID.TID 0000.0001) ># | Model parameters |
(PID.TID 0000.0001) ># ====================
(PID.TID 0000.0001) >#
(PID.TID 0000.0001) ># Continuous equation parameters
(PID.TID 0000.0001) >#
(PID.TID 0000.0001) >#   tRef            - Reference vertical potential temperature          (deg C)
(PID.TID 0000.0001) >#   sRef            - Reference vertical salinity                         (PSU)
(PID.TID 0000.0001) >#   viscAh          - Horizontal eddy viscosity coefficient             (m^2/s)
(PID.TID 0000.0001) >#   viscAz          - Vertical eddy viscosity coefficient               (m^2/s)
(PID.TID 0000.0001) >#   diffKhT         - Horizontal temperature diffusivity                (m^2/s)
(PID.TID 0000.0001) >#   diffKzT         - Vertical temperature diffusivity                  (m^2/s)
(PID.TID 0000.0001) >#   diffKhS         - Horizontal salt diffusivity                       (m^2/s)
(PID.TID 0000.0001) >#   diffKzS         - Vertical salt diffusivity                         (m^2/s)
(PID.TID 0000.0001) >#   f0              - Reference coriolis parameter,
(PID.TID 0000.0001) >#                     south edge of f on beta plane                       (1/s)
(PID.TID 0000.0001) >#   beta            - df/dy                                         (s^-1.m^-1)
(PID.TID 0000.0001) >#   tAlpha          - Linear EOS thermal expansion coefficient           (1/oC)
(PID.TID 0000.0001) >#   sBeta           - Linear EOS haline contraction coefficient         (1/ppt)
(PID.TID 0000.0001) >#   gravity         - Acceleration due to gravity                       (m/s^2)
(PID.TID 0000.0001) >#   gBaro           - Accel. due to gravity used in barotropic equation (m/s^2)
(PID.TID 0000.0001) >#   rigidLid        - Set to true to use rigid lid
(PID.TID 0000.0001) >#   implicitFreeSurface - Set to true to use implicit free surface
(PID.TID 0000.0001) >#   eosType         - Flag for linear or polynomial equation of state
(PID.TID 0000.0001) >#   momAdvection    - On/Off flag for momentum self transport
(PID.TID 0000.0001) >#   momViscosity    - On/Off flag for momentum mixing
(PID.TID 0000.0001) >#
(PID.TID 0000.0001) > &PARM01
(PID.TID 0000.0001) > tRef= 24.0 , 23.0 , 22.0 , 21.0 , 20.0 ,
(PID.TID 0000.0001) >       19.0 , 18.0 , 17.0 , 16.0 , 15.0 ,
(PID.TID 0000.0001) >       14.0 , 13.0 , 12.0 , 11.0 , 10.0 ,
(PID.TID 0000.0001) >        9.0 ,  8.0 ,  7.0 ,  6.0,   5.0 ,
(PID.TID 0000.0001) >        4.0 ,  3.0 ,  2.0 ,
(PID.TID 0000.0001) > sRef= 34.65, 34.75, 34.82, 34.87, 34.90,
(PID.TID 0000.0001) >       34.90, 34.86, 34.78, 34.69, 34.60,
(PID.TID 0000.0001) >       34.58, 34.62, 34.68, 34.72, 34.73,
(PID.TID 0000.0001) >       34.74, 34.73, 34.73, 34.72, 34.72,
(PID.TID 0000.0001) >       34.71, 34.70, 34.69,
(PID.TID 0000.0001) > no_slip_sides=.FALSE.,
(PID.TID 0000.0001) > no_slip_bottom=.TRUE.,
(PID.TID 0000.0001) > viscAz=1.E-3,
(PID.TID 0000.0001) > viscAh=5.E4,
(PID.TID 0000.0001) > diffKhT=1.E3,
(PID.TID 0000.0001) > diffKzT=1.E-5,
(PID.TID 0000.0001) > diffKhS=1.E3,
(PID.TID 0000.0001) > diffKzS=1.E-5,
(PID.TID 0000.0001) > beta=1.E-11,
(PID.TID 0000.0001) > tAlpha=2.E-4,
(PID.TID 0000.0001) > sBeta =7.4E-4,
(PID.TID 0000.0001) > gravity=9.81,
(PID.TID 0000.0001) > gBaro=9.81,
(PID.TID 0000.0001) > rigidLid=.FALSE.,
(PID.TID 0000.0001) > implicitFreeSurface=.TRUE.,
(PID.TID 0000.0001) > eosType='POLY3',
(PID.TID 0000.0001) > readBinaryPrec=64,
(PID.TID 0000.0001) > writeBinaryPrec=64,
(PID.TID 0000.0001) > saltStepping=.TRUE.,
(PID.TID 0000.0001) > tempStepping=.TRUE.,
(PID.TID 0000.0001) > momStepping=.TRUE.,
(PID.TID 0000.0001) > implicitDiffusion=.TRUE.,
(PID.TID 0000.0001) > implicitViscosity=.TRUE.,
(PID.TID 0000.0001) > &
(PID.TID 0000.0001) >
(PID.TID 0000.0001) ># Elliptic solver parameters
(PID.TID 0000.0001) >#
(PID.TID 0000.0001) >#   cg2dMaxIters       - Maximum number of 2d solver iterations
(PID.TID 0000.0001) >#   cg2dTargetResidual - Solver target residual
(PID.TID 0000.0001) >#
(PID.TID 0000.0001) > &PARM02
(PID.TID 0000.0001) > cg2dMaxIters=1000,
(PID.TID 0000.0001) > cg2dTargetResidual=1.E-13,
(PID.TID 0000.0001) > &
(PID.TID 0000.0001) >
(PID.TID 0000.0001) ># Time stepping parameters
(PID.TID 0000.0001) >#
(PID.TID 0000.0001) >#   startTime         - Integration starting time                (s)
(PID.TID 0000.0001) >#   endTime           - Integration ending time                  (s)
(PID.TID 0000.0001) >#   tauCD             - CD scheme coupling timescale             (s)
(PID.TID 0000.0001) >#   deltaTMom         - Timestep for momemtum equations          (s)
(PID.TID 0000.0001) >#   deltaTtracer      - Tracer timestep                          (s)
(PID.TID 0000.0001) >#   deltaTClock       - Timestep used as model "clock"           (s)
(PID.TID 0000.0001) >#   abEps             - Adams-Bashforth stabilising factor
(PID.TID 0000.0001) >#   pChkPtFreq        - Frequency of permanent check pointing    (s)
(PID.TID 0000.0001) >#   chkPtFreq         - Frequency of rolling check pointing      (s)
(PID.TID 0000.0001) >#   dumpFreq          - Frequency at which model state is stored (s)
(PID.TID 0000.0001) >#   tauThetaClimRelax - Relaxation to climatology time scale     (s)
(PID.TID 0000.0001) >#   tauSaltClimRelax  - Relaxation to climatology time scale     (s)
(PID.TID 0000.0001) >#
(PID.TID 0000.0001) > &PARM03
(PID.TID 0000.0001) > tauCD=172800.,
(PID.TID 0000.0001) > startTime=0.0,
(PID.TID 0000.0001) > nTimeSteps=4,
(PID.TID 0000.0001) > deltaTmom=3600.0,
(PID.TID 0000.0001) > deltaTtracer=3600.0,
(PID.TID 0000.0001) > deltaTClock =3600.0,
(PID.TID 0000.0001) > cAdjFreq=0.,
(PID.TID 0000.0001) > abEps=0.1,
(PID.TID 0000.0001) > pChkptFreq=15552000.0,
(PID.TID 0000.0001) > chkptFreq=15552000.0,
(PID.TID 0000.0001) > dumpFreq =86400.0,
(PID.TID 0000.0001) > tauThetaClimRelax=0.,
(PID.TID 0000.0001) > tauSaltClimRelax=0.,
(PID.TID 0000.0001) > &
(PID.TID 0000.0001) >
(PID.TID 0000.0001) ># Gridding parameters
(PID.TID 0000.0001) >#
(PID.TID 0000.0001) >#   usingSphericalPolarGrid - On/Off flag for spherical polar coordinates
(PID.TID 0000.0001) >#   usingCartesianGrid      - On/Off flag for selecting cartesian coordinates
(PID.TID 0000.0001) >#   delX                    - Zonal grid spacing         (degrees)
(PID.TID 0000.0001) >#   delY                    - Meridional grid spacing    (degrees)
(PID.TID 0000.0001) >#   delZ                    - Vertical grid spacing      (m)
(PID.TID 0000.0001) >#   phiMin                  - Southern boundary latitude (degrees)
(PID.TID 0000.0001) >#
(PID.TID 0000.0001) > &PARM04
(PID.TID 0000.0001) > usingCartesianGrid=.FALSE.,
(PID.TID 0000.0001) > usingSphericalPolarGrid=.TRUE.,
(PID.TID 0000.0001) > delX=20*2.E0,
(PID.TID 0000.0001) > delY=16*2.E0,
(PID.TID 0000.0001) > delZ= 10., 10., 15., 20., 20., 25., 35., 50., 75.,
(PID.TID 0000.0001) >       100., 150., 200., 275., 350., 415., 450.,
(PID.TID 0000.0001) >       500., 500., 500., 500., 500., 500., 500.
(PID.TID 0000.0001) > phimin=46.,
(PID.TID 0000.0001) > thetamin=280.,
(PID.TID 0000.0001) > rSphere         = 6371.D3
(PID.TID 0000.0001) > &
(PID.TID 0000.0001) >
(PID.TID 0000.0001) ># Input datasets
(PID.TID 0000.0001) >#
(PID.TID 0000.0001) >#   bathyFile       - File containing bathymetry
(PID.TID 0000.0001) >#   hydrogThetaFile - File containing initial potential temperature data
(PID.TID 0000.0001) >#   hydrogSaltFile  - File containing initial salinity data
(PID.TID 0000.0001) >#
(PID.TID 0000.0001) > &PARM05
(PID.TID 0000.0001) > bathyFile       = 'bathy.labsea',
(PID.TID 0000.0001) > hydrogThetaFile = 'LevCli_temp.labsea',
(PID.TID 0000.0001) > hydrogSaltFile  = 'LevCli_salt.labsea',
(PID.TID 0000.0001) > &
(PID.TID 0000.0001) >
(PID.TID 0000.0001) ># Open boundaries
(PID.TID 0000.0001) > &PARM06
(PID.TID 0000.0001) > &
(PID.TID 0000.0001) 
(PID.TID 0000.0001) S/R INI_PARMS ; read PARM01 : OK
(PID.TID 0000.0001) S/R INI_PARMS ; read PARM02 : OK
(PID.TID 0000.0001) S/R INI_PARMS ; read PARM03 : OK
(PID.TID 0000.0001) S/R INI_PARMS ; read PARM04 : OK
(PID.TID 0000.0001) S/R INI_PARMS ; read PARM05 : OK
(PID.TID 0000.0001) %MON XC_max                       =   3.1900000000000E+02
(PID.TID 0000.0001) %MON XC_min                       =   2.8100000000000E+02
(PID.TID 0000.0001) %MON XC_mean                      =   3.0000000000000E+02
(PID.TID 0000.0001) %MON XC_sd                        =   1.1532562594671E+01
(PID.TID 0000.0001) %MON XG_max                       =   3.1800000000000E+02
(PID.TID 0000.0001) %MON XG_min                       =   2.8000000000000E+02
(PID.TID 0000.0001) %MON XG_mean                      =   2.9900000000000E+02
(PID.TID 0000.0001) %MON XG_sd                        =   1.1532562594671E+01
(PID.TID 0000.0001) %MON DXC_max                      =   1.5166951523772E+05
(PID.TID 0000.0001) %MON DXC_min                      =   5.0026831972764E+04
(PID.TID 0000.0001) %MON DXC_mean                     =   1.0305926321463E+05
(PID.TID 0000.0001) %MON DXC_sd                       =   3.1375805318756E+04
(PID.TID 0000.0001) %MON DXF_max                      =   1.5166951523772E+05
(PID.TID 0000.0001) %MON DXF_min                      =   5.0026831972764E+04
(PID.TID 0000.0001) %MON DXF_mean                     =   1.0305926321463E+05
(PID.TID 0000.0001) %MON DXF_sd                       =   3.1375805318756E+04
(PID.TID 0000.0001) %MON DXG_max                      =   1.5448497309243E+05
(PID.TID 0000.0001) %MON DXG_min                      =   5.3800974869835E+04
(PID.TID 0000.0001) %MON DXG_mean                     =   1.0642630187324E+05
(PID.TID 0000.0001) %MON DXG_sd                       =   3.1081829200899E+04
(PID.TID 0000.0001) %MON DXV_max                      =   1.5448497309243E+05
(PID.TID 0000.0001) %MON DXV_min                      =   5.3800974869835E+04
(PID.TID 0000.0001) %MON DXV_mean                     =   1.0642630187324E+05
(PID.TID 0000.0001) %MON DXV_sd                       =   3.1081829200899E+04
(PID.TID 0000.0001) %MON YC_max                       =   7.7000000000000E+01
(PID.TID 0000.0001) %MON YC_min                       =   4.7000000000000E+01
(PID.TID 0000.0001) %MON YC_mean                      =   6.2000000000000E+01
(PID.TID 0000.0001) %MON YC_sd                        =   9.2195444572929E+00
(PID.TID 0000.0001) %MON YG_max                       =   7.6000000000000E+01
(PID.TID 0000.0001) %MON YG_min                       =   4.6000000000000E+01
(PID.TID 0000.0001) %MON YG_mean                      =   6.1000000000000E+01
(PID.TID 0000.0001) %MON YG_sd                        =   9.2195444572929E+00
(PID.TID 0000.0001) %MON DYC_max                      =   2.2238985328912E+05
(PID.TID 0000.0001) %MON DYC_min                      =   2.2238985328912E+05
(PID.TID 0000.0001) %MON DYC_mean                     =   2.2238985328912E+05
(PID.TID 0000.0001) %MON DYC_sd                       =   6.1118043959141E-10
(PID.TID 0000.0001) %MON DYF_max                      =   2.2238985328912E+05
(PID.TID 0000.0001) %MON DYF_min                      =   2.2238985328912E+05
(PID.TID 0000.0001) %MON DYF_mean                     =   2.2238985328912E+05
(PID.TID 0000.0001) %MON DYF_sd                       =   6.1118043959141E-10
(PID.TID 0000.0001) %MON DYG_max                      =   2.2238985328912E+05
(PID.TID 0000.0001) %MON DYG_min                      =   2.2238985328912E+05
(PID.TID 0000.0001) %MON DYG_mean                     =   2.2238985328912E+05
(PID.TID 0000.0001) %MON DYG_sd                       =   6.1118043959141E-10
(PID.TID 0000.0001) %MON DYU_max                      =   2.2238985328912E+05
(PID.TID 0000.0001) %MON DYU_min                      =   2.2238985328912E+05
(PID.TID 0000.0001) %MON DYU_mean                     =   2.2238985328912E+05
(PID.TID 0000.0001) %MON DYU_sd                       =   6.1118043959141E-10
(PID.TID 0000.0001) %MON RA_max                       =   3.3728048822756E+10
(PID.TID 0000.0001) %MON RA_min                       =   1.1124894996734E+10
(PID.TID 0000.0001) %MON RA_mean                      =   2.2918170839356E+10
(PID.TID 0000.0001) %MON RA_sd                        =   6.9773064942263E+09
(PID.TID 0000.0001) %MON RAW_max                      =   3.3728048822756E+10
(PID.TID 0000.0001) %MON RAW_min                      =   1.1124894996734E+10
(PID.TID 0000.0001) %MON RAW_mean                     =   2.2918170839356E+10
(PID.TID 0000.0001) %MON RAW_sd                       =   6.9773064942263E+09
(PID.TID 0000.0001) %MON RAS_max                      =   3.4354146294179E+10
(PID.TID 0000.0001) %MON RAS_min                      =   1.1964183470077E+10
(PID.TID 0000.0001) %MON RAS_mean                     =   2.3666928057229E+10
(PID.TID 0000.0001) %MON RAS_sd                       =   6.9119325076329E+09
(PID.TID 0000.0001) %MON RAZ_max                      =   3.4354146294179E+10
(PID.TID 0000.0001) %MON RAZ_min                      =   1.1964183470077E+10
(PID.TID 0000.0001) %MON RAZ_mean                     =   2.3666928057229E+10
(PID.TID 0000.0001) %MON RAZ_sd                       =   6.9119325076329E+09
(PID.TID 0000.0001)  MDSREADFIELD: opening global file: bathy.labsea
(PID.TID 0000.0001) // =======================================================
(PID.TID 0000.0001) // Field Model R_low (ini_masks_etc) at iteration          1
(PID.TID 0000.0001) // CMIN =         -4.200000000000000E+03
(PID.TID 0000.0001) // CMAX =         -5.500000000000000E+01
(PID.TID 0000.0001) // CINT =          1.535185185185185E+02
(PID.TID 0000.0001) // SYMBOLS (CMIN->CMAX): -abcdefghijklmnopqrstuvwxyz+
(PID.TID 0000.0001) //                  0.0: .
(PID.TID 0000.0001) // RANGE I (Lo:Hi:Step):(  -3:  24:   1)
(PID.TID 0000.0001) // RANGE J (Lo:Hi:Step):(  20:  -3:  -1)
(PID.TID 0000.0001) // RANGE K (Lo:Hi:Step):(   1:   1:   1)
(PID.TID 0000.0001) // =======================================================
(PID.TID 0000.0001) K =   1
(PID.TID 0000.0001) //                I=6       I=16
(PID.TID 0000.0001) // |--J--|***012345|789012345|78901234
(PID.TID 0000.0001) //     20 cccg............zzmgcccg....
(PID.TID 0000.0001) //     19 gcc-..........+.zzxmgcc-....
(PID.TID 0000.0001) //     18 mjc-.......+zzz..zzsmjc-....
(PID.TID 0000.0001) //     17 wwc-........++z+++z+wwc-....
(PID.TID 0000.0001) //     16 .....zyyz................zyy
(PID.TID 0000.0001) //     15 ....yxwwuspxyxz.........yxww
(PID.TID 0000.0001) //     14 .....+wwspppsxzz.........+ww
(PID.TID 0000.0001) //     13 ........zwsppsyz............
(PID.TID 0000.0001) //     12 ..........+ypswzz+..........
(PID.TID 0000.0001) //     11 ............+wwy+...........
(PID.TID 0000.0001) //     10 ...........zzzywy+..........
(PID.TID 0000.0001) //      9 ...z.......+zxsmmm+....z....
(PID.TID 0000.0001) //      8 z..s.....zzzxumjjjjuz..s....
(PID.TID 0000.0001) //      7 jpmj......z.+zmjggggjpmj....
(PID.TID 0000.0001) //      6 gggg.........zxmjggggggg....
(PID.TID 0000.0001) //      5 gggg..........zzsjgggggg....
(PID.TID 0000.0001) //      4 cccg............zzmgcccg....
(PID.TID 0000.0001) //      3 gcc-..........+.zzxmgcc-....
(PID.TID 0000.0001) //      2 mjc-.......+zzz..zzsmjc-....
(PID.TID 0000.0001) //      1 wwc-........++z+++z+wwc-....
(PID.TID 0000.0001) //      0 .....zyyz................zyy
(PID.TID 0000.0001) //     -1 ....yxwwuspxyxz.........yxww
(PID.TID 0000.0001) //     -2 .....+wwspppsxzz.........+ww
(PID.TID 0000.0001) //     -3 ........zwsppsyz............
(PID.TID 0000.0001) // =======================================================
(PID.TID 0000.0001) // END OF FIELD                                          =
(PID.TID 0000.0001) // =======================================================
(PID.TID 0000.0001) 
(PID.TID 0000.0001) // =======================================================
(PID.TID 0000.0001) // Field Model Ro_surf (ini_masks_etc) at iteration          1
(PID.TID 0000.0001) // CMIN =          1.000000000000000E+32
(PID.TID 0000.0001) // CMAX =         -1.000000000000000E+32
(PID.TID 0000.0001) // CINT =          0.000000000000000E+00
(PID.TID 0000.0001) // SYMBOLS (CMIN->CMAX): -abcdefghijklmnopqrstuvwxyz+
(PID.TID 0000.0001) //                  0.0: .
(PID.TID 0000.0001) // RANGE I (Lo:Hi:Step):(  -3:  24:   1)
(PID.TID 0000.0001) // RANGE J (Lo:Hi:Step):(  20:  -3:  -1)
(PID.TID 0000.0001) // RANGE K (Lo:Hi:Step):(   1:   1:   1)
(PID.TID 0000.0001) // =======================================================
(PID.TID 0000.0001) K =   1
(PID.TID 0000.0001) //                I=6       I=16
(PID.TID 0000.0001) // |--J--|***012345|789012345|78901234
(PID.TID 0000.0001) //     20 ............................
(PID.TID 0000.0001) //     19 ............................
(PID.TID 0000.0001) //     18 ............................
(PID.TID 0000.0001) //     17 ............................
(PID.TID 0000.0001) //     16 ............................
(PID.TID 0000.0001) //     15 ............................
(PID.TID 0000.0001) //     14 ............................
(PID.TID 0000.0001) //     13 ............................
(PID.TID 0000.0001) //     12 ............................
(PID.TID 0000.0001) //     11 ............................
(PID.TID 0000.0001) //     10 ............................
(PID.TID 0000.0001) //      9 ............................
(PID.TID 0000.0001) //      8 ............................
(PID.TID 0000.0001) //      7 ............................
(PID.TID 0000.0001) //      6 ............................
(PID.TID 0000.0001) //      5 ............................
(PID.TID 0000.0001) //      4 ............................
(PID.TID 0000.0001) //      3 ............................
(PID.TID 0000.0001) //      2 ............................
(PID.TID 0000.0001) //      1 ............................
(PID.TID 0000.0001) //      0 ............................
(PID.TID 0000.0001) //     -1 ............................
(PID.TID 0000.0001) //     -2 ............................
(PID.TID 0000.0001) //     -3 ............................
(PID.TID 0000.0001) // =======================================================
(PID.TID 0000.0001) // END OF FIELD                                          =
(PID.TID 0000.0001) // =======================================================
(PID.TID 0000.0001) 
(PID.TID 0000.0001) // =======================================================
(PID.TID 0000.0001) // Field hFacC at iteration          1
(PID.TID 0000.0001) // CMIN =          1.000000000000000E+00
(PID.TID 0000.0001) // CMAX =          1.000000000000000E+00
(PID.TID 0000.0001) // CINT =          0.000000000000000E+00
(PID.TID 0000.0001) // SYMBOLS (CMIN->CMAX): -abcdefghijklmnopqrstuvwxyz+
(PID.TID 0000.0001) //                  0.0: .
(PID.TID 0000.0001) // RANGE I (Lo:Hi:Step):(  -3:  24:   1)
(PID.TID 0000.0001) // RANGE J (Lo:Hi:Step):(  20:  -3:  -1)
(PID.TID 0000.0001) // RANGE K (Lo:Hi:Step):(   1:   1:   1)
(PID.TID 0000.0001) // =======================================================
(PID.TID 0000.0001) K =   1
(PID.TID 0000.0001) //                I=6       I=16
(PID.TID 0000.0001) // |--J--|***012345|789012345|78901234
(PID.TID 0000.0001) //     20 ----............--------....
(PID.TID 0000.0001) //     19 ----..........-.--------....
(PID.TID 0000.0001) //     18 ----.......----..-------....
(PID.TID 0000.0001) //     17 ----........------------....
(PID.TID 0000.0001) //     16 .....----................---
(PID.TID 0000.0001) //     15 ....-----------.........----
(PID.TID 0000.0001) //     14 .....-----------.........---
(PID.TID 0000.0001) //     13 ........--------............
(PID.TID 0000.0001) //     12 ..........--------..........
(PID.TID 0000.0001) //     11 ............-----...........
(PID.TID 0000.0001) //     10 ...........-------..........
(PID.TID 0000.0001) //      9 ...-.......--------....-....
(PID.TID 0000.0001) //      8 -..-.....------------..-....
(PID.TID 0000.0001) //      7 ----......-.------------....
(PID.TID 0000.0001) //      6 ----.........-----------....
(PID.TID 0000.0001) //      5 ----..........----------....
(PID.TID 0000.0001) //      4 ----............--------....
(PID.TID 0000.0001) //      3 ----..........-.--------....
(PID.TID 0000.0001) //      2 ----.......----..-------....
(PID.TID 0000.0001) //      1 ----........------------....
(PID.TID 0000.0001) //      0 .....----................---
(PID.TID 0000.0001) //     -1 ....-----------.........----
(PID.TID 0000.0001) //     -2 .....-----------.........---
(PID.TID 0000.0001) //     -3 ........--------............
(PID.TID 0000.0001) // =======================================================
(PID.TID 0000.0001) // END OF FIELD                                          =
(PID.TID 0000.0001) // =======================================================
(PID.TID 0000.0001) 
(PID.TID 0000.0001) // =======================================================
(PID.TID 0000.0001) // Field hFacW at iteration          1
(PID.TID 0000.0001) // CMIN =          1.000000000000000E+00
(PID.TID 0000.0001) // CMAX =          1.000000000000000E+00
(PID.TID 0000.0001) // CINT =          0.000000000000000E+00
(PID.TID 0000.0001) // SYMBOLS (CMIN->CMAX): -abcdefghijklmnopqrstuvwxyz+
(PID.TID 0000.0001) //                  0.0: .
(PID.TID 0000.0001) // RANGE I (Lo:Hi:Step):(  -3:  24:   1)
(PID.TID 0000.0001) // RANGE J (Lo:Hi:Step):(  20:  -3:  -1)
(PID.TID 0000.0001) // RANGE K (Lo:Hi:Step):(   1:   1:   1)
(PID.TID 0000.0001) // =======================================================
(PID.TID 0000.0001) K =   1
(PID.TID 0000.0001) //                I=6       I=16
(PID.TID 0000.0001) // |--J--|***012345|789012345|78901234
(PID.TID 0000.0001) //     20 ----.............-------....
(PID.TID 0000.0001) //     19 ----.............-------....
(PID.TID 0000.0001) //     18 ----........---...------....
(PID.TID 0000.0001) //     17 ----.........-----------....
(PID.TID 0000.0001) //     16 ......---.................--
(PID.TID 0000.0001) //     15 .....----------..........---
(PID.TID 0000.0001) //     14 ......----------..........--
(PID.TID 0000.0001) //     13 .........-------............
(PID.TID 0000.0001) //     12 ...........-------..........
(PID.TID 0000.0001) //     11 .............----...........
(PID.TID 0000.0001) //     10 ............------..........
(PID.TID 0000.0001) //      9 ............-------.........
(PID.TID 0000.0001) //      8 -.........-----------.......
(PID.TID 0000.0001) //      7 ----.........-----------....
(PID.TID 0000.0001) //      6 ----..........----------....
(PID.TID 0000.0001) //      5 ----...........---------....
(PID.TID 0000.0001) //      4 ----.............-------....
(PID.TID 0000.0001) //      3 ----.............-------....
(PID.TID 0000.0001) //      2 ----........---...------....
(PID.TID 0000.0001) //      1 ----.........-----------....
(PID.TID 0000.0001) //      0 ......---.................--
(PID.TID 0000.0001) //     -1 .....----------..........---
(PID.TID 0000.0001) //     -2 ......----------..........--
(PID.TID 0000.0001) //     -3 .........-------............
(PID.TID 0000.0001) // =======================================================
(PID.TID 0000.0001) // END OF FIELD                                          =
(PID.TID 0000.0001) // =======================================================
(PID.TID 0000.0001) 
(PID.TID 0000.0001) // =======================================================
(PID.TID 0000.0001) // Field hFacS at iteration          1
(PID.TID 0000.0001) // CMIN =          1.000000000000000E+00
(PID.TID 0000.0001) // CMAX =          1.000000000000000E+00
(PID.TID 0000.0001) // CINT =          0.000000000000000E+00
(PID.TID 0000.0001) // SYMBOLS (CMIN->CMAX): -abcdefghijklmnopqrstuvwxyz+
(PID.TID 0000.0001) //                  0.0: .
(PID.TID 0000.0001) // RANGE I (Lo:Hi:Step):(  -3:  24:   1)
(PID.TID 0000.0001) // RANGE J (Lo:Hi:Step):(  20:  -3:  -1)
(PID.TID 0000.0001) // RANGE K (Lo:Hi:Step):(   1:   1:   1)
(PID.TID 0000.0001) // =======================================================
(PID.TID 0000.0001) K =   1
(PID.TID 0000.0001) //                I=6       I=16
(PID.TID 0000.0001) // |--J--|***012345|789012345|78901234
(PID.TID 0000.0001) //     20 ----............--------....
(PID.TID 0000.0001) //     19 ----..........-..-------....
(PID.TID 0000.0001) //     18 ----........---..-------....
(PID.TID 0000.0001) //     17 ............................
(PID.TID 0000.0001) //     16 .....----................---
(PID.TID 0000.0001) //     15 .....----------..........---
(PID.TID 0000.0001) //     14 ........--------............
(PID.TID 0000.0001) //     13 ..........------............
(PID.TID 0000.0001) //     12 ............-----...........
(PID.TID 0000.0001) //     11 ............-----...........
(PID.TID 0000.0001) //     10 ...........-------..........
(PID.TID 0000.0001) //      9 ...-.......--------....-....
(PID.TID 0000.0001) //      8 -..-......-.---------..-....
(PID.TID 0000.0001) //      7 ----.........-----------....
(PID.TID 0000.0001) //      6 ----..........----------....
(PID.TID 0000.0001) //      5 ----............--------....
(PID.TID 0000.0001) //      4 ----............--------....
(PID.TID 0000.0001) //      3 ----..........-..-------....
(PID.TID 0000.0001) //      2 ----........---..-------....
(PID.TID 0000.0001) //      1 ............................
(PID.TID 0000.0001) //      0 .....----................---
(PID.TID 0000.0001) //     -1 .....----------..........---
(PID.TID 0000.0001) //     -2 ........--------............
(PID.TID 0000.0001) //     -3 ..........------............
(PID.TID 0000.0001) // =======================================================
(PID.TID 0000.0001) // END OF FIELD                                          =
(PID.TID 0000.0001) // =======================================================
(PID.TID 0000.0001) 
(PID.TID 0000.0001) %MON fCori_max                    =   1.4171638136144E-04
(PID.TID 0000.0001) %MON fCori_min                    =   1.0637108408252E-04
(PID.TID 0000.0001) %MON fCori_mean                   =   1.2676338344768E-04
(PID.TID 0000.0001) %MON fCori_sd                     =   1.1001401444773E-05
(PID.TID 0000.0001) %MON fCoriG_max                   =   1.4112379284621E-04
(PID.TID 0000.0001) %MON fCoriG_min                   =   1.0462373297123E-04
(PID.TID 0000.0001) %MON fCoriG_mean                  =   1.2556776212280E-04
(PID.TID 0000.0001) %MON fCoriG_sd                    =   1.1352720951562E-05
(PID.TID 0000.0001)  PACKAGES_BOOT: opening data.pkg
(PID.TID 0000.0001)  OPEN_COPY_DATA_FILE: opening file data.pkg
(PID.TID 0000.0001) // =======================================================
(PID.TID 0000.0001) // Parameter file "data.pkg"
(PID.TID 0000.0001) // =======================================================
(PID.TID 0000.0001) >#
(PID.TID 0000.0001) ># ********
(PID.TID 0000.0001) ># Packages
(PID.TID 0000.0001) ># ********
(PID.TID 0000.0001) > &PACKAGES
(PID.TID 0000.0001) > useGMRedi    = .FALSE.,
(PID.TID 0000.0001) > useKPP       = .TRUE.,
(PID.TID 0000.0001) > useSEAICE    = .TRUE.,
(PID.TID 0000.0001) > useECCO      = .TRUE.,
(PID.TID 0000.0001) > useGrdchk    = .TRUE.,
(PID.TID 0000.0001) > &
(PID.TID 0000.0001) 
(PID.TID 0000.0001)  PACKAGES_BOOT: finished reading data.pkg
(PID.TID 0000.0001)  KPP_INIT: opening data.kpp
(PID.TID 0000.0001)  OPEN_COPY_DATA_FILE: opening file data.kpp
(PID.TID 0000.0001) // =======================================================
(PID.TID 0000.0001) // Parameter file "data.kpp"
(PID.TID 0000.0001) // =======================================================
(PID.TID 0000.0001) >
(PID.TID 0000.0001) >#
(PID.TID 0000.0001) ># ***************
(PID.TID 0000.0001) ># KPP parameters
(PID.TID 0000.0001) ># ***************
(PID.TID 0000.0001) > &KPP_PARM01
(PID.TID 0000.0001) > &
(PID.TID 0000.0001) 
(PID.TID 0000.0001)  KPP_INIT: finished reading data.kpp
(PID.TID 0000.0001)  SEAICE_INIT: opening data.seaice
(PID.TID 0000.0001)  OPEN_COPY_DATA_FILE: opening file data.seaice
(PID.TID 0000.0001) // =======================================================
(PID.TID 0000.0001) // Parameter file "data.seaice"
(PID.TID 0000.0001) // =======================================================
(PID.TID 0000.0001) ># SEAICE parameters
(PID.TID 0000.0001) > &SEAICE_PARM01
(PID.TID 0000.0001) >      SEAICEwriteState  = .TRUE.
(PID.TID 0000.0001) > &
(PID.TID 0000.0001) 
(PID.TID 0000.0001)  SEAICE_INIT: finished reading data.seaice
(PID.TID 0000.0001) 
(PID.TID 0000.0001) // =======================================================
(PID.TID 0000.0001) // Gradient check configuration  >>> START <<<
(PID.TID 0000.0001) // =======================================================
(PID.TID 0000.0001) 
(PID.TID 0000.0001)   eps:                              0.100E-01
(PID.TID 0000.0001)   First location:                           1
(PID.TID 0000.0001)   Last location:                            4
(PID.TID 0000.0001)   Increment:                                1
(PID.TID 0000.0001) 
(PID.TID 0000.0001) // =======================================================
(PID.TID 0000.0001) // Gradient check configuration  >>> END <<<
(PID.TID 0000.0001) // =======================================================
(PID.TID 0000.0001) 
(PID.TID 0000.0001) 
(PID.TID 0000.0001) // =======================================================
(PID.TID 0000.0001) // Calendar configuration >>> START <<<
(PID.TID 0000.0001) // =======================================================
(PID.TID 0000.0001) 
(PID.TID 0000.0001) Calendar version: 0.2.0
(PID.TID 0000.0001) 
(PID.TID 0000.0001) startTime =   /* Start time of the model integration [s] */
(PID.TID 0000.0001)                 0.000000000000000E+00
(PID.TID 0000.0001)     ;
(PID.TID 0000.0001) endTime =   /* End time of the model integration [s] */
(PID.TID 0000.0001)                 1.440000000000000E+04
(PID.TID 0000.0001)     ;
(PID.TID 0000.0001) deltatclock =   /* Time interval for a model forward step [s] */
(PID.TID 0000.0001)                 3.600000000000000E+03
(PID.TID 0000.0001)     ;
(PID.TID 0000.0001) usingGregorianCalendar =  /* Calendar Type: Gregorian Calendar */
(PID.TID 0000.0001)                   T
(PID.TID 0000.0001)     ;
(PID.TID 0000.0001) usingJulianCalendar =  /* Calendar Type: Julian Calendar */
(PID.TID 0000.0001)                   F
(PID.TID 0000.0001)     ;
(PID.TID 0000.0001) usingModelCalendar =  /* Calendar Type: Model Calendar */
(PID.TID 0000.0001)                   F
(PID.TID 0000.0001)     ;
(PID.TID 0000.0001) usingNoCalendar =  /* Calendar Type: No Calendar */
(PID.TID 0000.0001)                   F
(PID.TID 0000.0001)     ;
(PID.TID 0000.0001) modelstartdate (YYYYMMDD) =   /* Model start date YYYY-MM-DD  */
(PID.TID 0000.0001)                19790101
(PID.TID 0000.0001)     ;
(PID.TID 0000.0001) modelstartdate (HHMMSS) =   /* Model start date HH-MM-SS  */
(PID.TID 0000.0001)                       0
(PID.TID 0000.0001)     ;
(PID.TID 0000.0001) modelenddate (YYYYMMDD) =   /* Model end date YYYY-MM-DD  */
(PID.TID 0000.0001)                19790101
(PID.TID 0000.0001)     ;
(PID.TID 0000.0001) modelenddate (HHMMSS) =   /* Model end date HH-MM-SS  */
(PID.TID 0000.0001)                   40000
(PID.TID 0000.0001)     ;
(PID.TID 0000.0001) intyears =   /* Number of calendar years affected by the integration  */
(PID.TID 0000.0001)                       1
(PID.TID 0000.0001)     ;
(PID.TID 0000.0001) intmonths =   /* Number of calendar months affected by the integration  */
(PID.TID 0000.0001)                       1
(PID.TID 0000.0001)     ;
(PID.TID 0000.0001) intdays =   /* Number of calendar days affected by the integration  */
(PID.TID 0000.0001)                       1
(PID.TID 0000.0001)     ;
(PID.TID 0000.0001) nIter0 =   /* Base timestep number  */
(PID.TID 0000.0001)                       0
(PID.TID 0000.0001)     ;
(PID.TID 0000.0001) nEndIter =   /* Final timestep number  */
(PID.TID 0000.0001)                       4
(PID.TID 0000.0001)     ;
(PID.TID 0000.0001) nTimeSteps =   /* Number of model timesteps  */
(PID.TID 0000.0001)                       4
(PID.TID 0000.0001)     ;
(PID.TID 0000.0001) 
(PID.TID 0000.0001) // =======================================================
(PID.TID 0000.0001) // Calendar configuration  >>> END <<<
(PID.TID 0000.0001) // =======================================================
(PID.TID 0000.0001) 
(PID.TID 0000.0001) 
(PID.TID 0000.0001) // =======================================================
(PID.TID 0000.0001) // External forcing configuration >>> START <<<
(PID.TID 0000.0001) // =======================================================
(PID.TID 0000.0001) 
(PID.TID 0000.0001) External forcing version: 0.2.2
(PID.TID 0000.0001) Uses Calendar version:    0.2.0
(PID.TID 0000.0001) 
(PID.TID 0000.0001) // ALLOW_ATM_TEMP:                     defined
(PID.TID 0000.0001) // ALLOW_ATM_WIND:                     defined
(PID.TID 0000.0001) // ALLOW_DOWNWARD_RADIATION:           defined
(PID.TID 0000.0001) // ALLOW_BULKFORMULAE:                 defined
(PID.TID 0000.0001) 
(PID.TID 0000.0001)    Net shortwave flux forcing starts at       00000000 000000 FRI.
(PID.TID 0000.0001)    Net shortwave flux forcing period is       00000000 000000
(PID.TID 0000.0001)    Net shortwave flux forcing is read from file:
(PID.TID 0000.0001)    >>                                                                                                                                    <<
(PID.TID 0000.0001) 
(PID.TID 0000.0001)    Zonal wind forcing starts at                 19781216 180000 SAT.
(PID.TID 0000.0001)    Zonal wind forcing period is                 00000030 120000
(PID.TID 0000.0001)    Zonal wind forcing is read from file:
(PID.TID 0000.0001)    >>  u10m.labsea79  <<
(PID.TID 0000.0001) 
(PID.TID 0000.0001)    Meridional wind forcing starts at            19781216 180000 SAT.
(PID.TID 0000.0001)    Meridional wind forcing period is            00000030 120000
(PID.TID 0000.0001)    Meridional wind forcing is read from file:
(PID.TID 0000.0001)    >>  v10m.labsea79  <<
(PID.TID 0000.0001) 
(PID.TID 0000.0001)    Atmospheric temperature starts at            19781216 180000 SAT.
(PID.TID 0000.0001)    Atmospheric temperature period is            00000030 120000
(PID.TID 0000.0001)    Atmospheric temperature is read from file:
(PID.TID 0000.0001)    >>  tair.labsea1979  <<
(PID.TID 0000.0001) 
(PID.TID 0000.0001)    Atmospheric specific humidity starts at      19781216 180000 SAT.
(PID.TID 0000.0001)    Atmospheric specific humidity period is      00000030 120000
(PID.TID 0000.0001)    Atmospheric specific humidity is read from file:
(PID.TID 0000.0001)    >>  qa.labsea1979  <<
(PID.TID 0000.0001) 
(PID.TID 0000.0001)    Net longwave flux forcing starts at        00000000 000000 FRI.
(PID.TID 0000.0001)    Net longwave flux forcing period is        00000000 000000
(PID.TID 0000.0001)    Net longwave flux forcing is read from file:
(PID.TID 0000.0001)    >>                                                                                                                                    <<
(PID.TID 0000.0001) 
(PID.TID 0000.0001)    Precipitation data set starts at             19781216 180000 SAT.
(PID.TID 0000.0001)    Precipitation data period is                 00000030 120000
(PID.TID 0000.0001)    Precipitation data is read from file:
(PID.TID 0000.0001)    >>  prate.labsea1979  <<
(PID.TID 0000.0001) // EXF_READ_EVAP:                  NOT defined
(PID.TID 0000.0001) // ALLOW_RUNOFF:                       defined
(PID.TID 0000.0001) 
(PID.TID 0000.0001)    Runnoff starts at      00000000 000000 FRI.
(PID.TID 0000.0001)    Runoff period is      00000000 000000
(PID.TID 0000.0001)    Runoff is read from file:
(PID.TID 0000.0001)    >>                                                                                                                                    <<
(PID.TID 0000.0001) 
(PID.TID 0000.0001) // =======================================================
(PID.TID 0000.0001) // External forcing configuration  >>> END <<<
(PID.TID 0000.0001) // =======================================================
(PID.TID 0000.0001) 
(PID.TID 0000.0001) 
(PID.TID 0000.0001) // =======================================================
(PID.TID 0000.0001) // External forcing climatology configuration >>> START <<<
(PID.TID 0000.0001) // =======================================================
(PID.TID 0000.0001) 
(PID.TID 0000.0001) External forcing version: 0.2.2
(PID.TID 0000.0001) Uses Calendar version:    0.2.0
(PID.TID 0000.0001) 
(PID.TID 0000.0001) // ALLOW_CLIMTEMP_RELAXATION:      NOT defined
(PID.TID 0000.0001) // ALLOW_CLIMSALT_RELAXATION:      NOT defined
(PID.TID 0000.0001) // ALLOW_CLIMSST_RELAXATION:       NOT defined
(PID.TID 0000.0001) // ALLOW_CLIMSSS_RELAXATION:       NOT defined
(PID.TID 0000.0001) 
(PID.TID 0000.0001) // =======================================================
(PID.TID 0000.0001) // External forcing climatology configuration  >>> END <<<
(PID.TID 0000.0001) // =======================================================
(PID.TID 0000.0001) 
(PID.TID 0000.0001)  MDSREADFIELD: opening global file: labsea_ssh.err
(PID.TID 0000.0001)  MDSREADFIELD: opening global file: labsea_ustress.err
 WARNING: wtau0 needs to be replaced by wwind0!!!
(PID.TID 0000.0001)  MDSREADFIELD: opening global file: labsea_vstress.err
(PID.TID 0000.0001)  MDSREADFIELD: opening global file: labsea_totflux.err
 WARNING: whflux0 needs to be replaced by watemp0!!!
(PID.TID 0000.0001)  MDSREADFIELD: opening global file: labsea_pme.err
 WARNING: wsflux0 needs to be replaced by waqh0!!!
(PID.TID 0000.0001) 
(PID.TID 0000.0001) // =======================================================
(PID.TID 0000.0001) // ECCO cost function configuration  >>> START <<<
(PID.TID 0000.0001) // =======================================================
(PID.TID 0000.0001) 
(PID.TID 0000.0001)   Multipliers for the indivdual cost function contributions:
(PID.TID 0000.0001) 
(PID.TID 0000.0001)   Net heat flux:                 0.100E+01
(PID.TID 0000.0001)   Salt flux:                     0.100E+01
(PID.TID 0000.0001)   Zonal wind stress:             0.100E+01
(PID.TID 0000.0001)   Meridional wind stress:        0.100E+01
(PID.TID 0000.0001)   Mean sea surface height:       0.100E+01
(PID.TID 0000.0001)   Sea surface height anomalies:  0.100E+01
(PID.TID 0000.0001)   Temperature (3d):              0.100E+01
(PID.TID 0000.0001)   Salinity (3d):                 0.100E+01
(PID.TID 0000.0001)   Temperature (3d):              0.000E+00
(PID.TID 0000.0001)   Salinity (3d):                 0.000E+00
(PID.TID 0000.0001)   Sea surface temperature:       0.100E+01
(PID.TID 0000.0001)   Sea surface salinity:         0.000E+00
(PID.TID 0000.0001)   CTD temperature:               0.000E+00
(PID.TID 0000.0001)   CTD salinity:                  0.000E+00
(PID.TID 0000.0001)   XBT Temperature:               0.000E+00
(PID.TID 0000.0001)   ARGO Temperature:               0.000E+00
(PID.TID 0000.0001)   ARGO Salt:                      0.000E+00
(PID.TID 0000.0001)   drifter velocities:            0.000E+00
(PID.TID 0000.0001)   drift between last and 1st year: 0.000E+00
(PID.TID 0000.0001)   drift between last and 1st year: 0.000E+00
(PID.TID 0000.0001) 
(PID.TID 0000.0001) 
(PID.TID 0000.0001)   Temperature data are read from: labsea_Lev.ptmp
(PID.TID 0000.0001)   Salinity data are read from:    labsea_Lev.salt
(PID.TID 0000.0001) 
(PID.TID 0000.0001)  ctrl_init: Initializing temperature and salinity
(PID.TID 0000.0001)                    part of the control vector.
(PID.TID 0000.0001)                    The initial surface fluxes are set to zero.
(PID.TID 0000.0001) 
 ph-wet 1: nvarlength =  4818
 ph-wet 2: surface wet C =  150
 ph-wet 3: surface wet W =  129
 ph-wet 4: surface wet S =  120
 ph-wet 5: 3D wet points =  1860
 ph-wet 6: no recs for i =  1 1
 ph-wet 6: no recs for i =  2 1
 ph-wet 6: no recs for i =  3 0
 ph-wet 6: no recs for i =  4 0
 ph-wet 6: no recs for i =  5 0
 ph-wet 6: no recs for i =  6 0
 ph-wet 6: no recs for i =  7 2
 ph-wet 6: no recs for i =  8 2
 ph-wet 6: no recs for i =  9 2
 ph-wet 6: no recs for i =  10 2
 ph-wet 6: no recs for i =  11 0
 ph-wet 6: no recs for i =  12 0
 ph-wet 6: no recs for i =  13 0
 ph-wet 6: no recs for i =  14 0
 ph-wet 7:  3720
 ph-wet 8:  4818
 ph-wet 13: global nvarlength vor k= 24 4818
 ctrl_init: no. of control variables:  6
 ctrl_init: control vector length:     4818
(PID.TID 0000.0001) 
(PID.TID 0000.0001) // =======================================================
(PID.TID 0000.0001) // ECCO control vector configuration  >>> START <<<
(PID.TID 0000.0001) // =======================================================
(PID.TID 0000.0001) 
(PID.TID 0000.0001)  Total number of ocean points per tile:
(PID.TID 0000.0001)  --------------------------------------
(PID.TID 0000.0001) 
(PID.TID 0000.0001)  snx*sny*nr =     7360
(PID.TID 0000.0001) 
(PID.TID 0000.0001)  Number of ocean points per tile:
(PID.TID 0000.0001)  --------------------------------
(PID.TID 0000.0001)  bi,bj,#(c/s/w): 0001 0001 001860 001457 001549
(PID.TID 0000.0001) 
(PID.TID 0000.0001)  Initial state temperature contribution:
(PID.TID 0000.0001)  Control variable index:    0101
(PID.TID 0000.0001) 
(PID.TID 0000.0001)  Initial state salinity contribution:
(PID.TID 0000.0001)  Control variable index:    0102
(PID.TID 0000.0001) 
(PID.TID 0000.0001) // =======================================================
(PID.TID 0000.0001) // ECCO control vector configuration  >>> END <<<
(PID.TID 0000.0001) // =======================================================
(PID.TID 0000.0001) 
(PID.TID 0000.0001) 
(PID.TID 0000.0001) // =======================================================
(PID.TID 0000.0001) // Gradient check configuration  >>> START <<<
(PID.TID 0000.0001) // =======================================================
(PID.TID 0000.0001) 
(PID.TID 0000.0001)   eps:                              0.100E-01
(PID.TID 0000.0001)   First location:                           1
(PID.TID 0000.0001)   Last location:                            4
(PID.TID 0000.0001)   Increment:                                1
(PID.TID 0000.0001) 
(PID.TID 0000.0001) // =======================================================
(PID.TID 0000.0001) // Gradient check configuration  >>> END <<<
(PID.TID 0000.0001) // =======================================================
(PID.TID 0000.0001) 
(PID.TID 0000.0001) 
(PID.TID 0000.0001) // =======================================================
(PID.TID 0000.0001) // ECCO configuration >>> START <<<
(PID.TID 0000.0001) // =======================================================
(PID.TID 0000.0001) 
(PID.TID 0000.0001) ECCO version:              0.1.0
(PID.TID 0000.0001) 
(PID.TID 0000.0001) Packages used:
(PID.TID 0000.0001) Calendar version:          0.1.4
(PID.TID 0000.0001) External Forcing version:  0.1.1
(PID.TID 0000.0001) Adjoint support version:   0.1.0
(PID.TID 0000.0001) Optimization version:      2.1.0
(PID.TID 0000.0001) 
(PID.TID 0000.0001) // ALLOW_ECCO_FORWARD_RUN:         NOT defined
(PID.TID 0000.0001) // ALLOW_ECCO_DIAGNOSTIC_RUN:      NOT defined
(PID.TID 0000.0001) // ALLOW_ADJOINT_RUN:         NOT defined
(PID.TID 0000.0001) // ALLOW_GRADIENT_CHECK:          defined
(PID.TID 0000.0001) // ALLOW_ECCO_OPTIMIZATION:            defined
(PID.TID 0000.0001) // ALLOW_NO_DYNAMICS:                NOT defined
(PID.TID 0000.0001) // ALLOW_YMDS_TREE:                  NOT defined
(PID.TID 0000.0001) // ALLOW_STEPPING_CALL:                  defined
(PID.TID 0000.0001) // ALLOW_NONDIMENSIONAL_CONTROL_IO:      defined
(PID.TID 0000.0001) // ALLOW_EGM96_ERROR_COV:            NOT defined
(PID.TID 0000.0001) // ALLOW_READ_EGM_DATA:              NOT defined
(PID.TID 0000.0001) // ALLOW_SCAT_COST_CONTRIBUTION:                 NOT defined
(PID.TID 0000.0001) // ALLOW_HFLUX_COST_CONTRIBUTION:    NOT defined
(PID.TID 0000.0001) // ALLOW_SFLUX_COST_CONTRIBUTION:    NOT defined
(PID.TID 0000.0001) // ALLOW_USTRESS_COST_CONTRIBUTION:  NOT defined
(PID.TID 0000.0001) // ALLOW_VSTRESS_COST_CONTRIBUTION:  NOT defined
(PID.TID 0000.0001) // ALLOW_THETA_COST_CONTRIBUTION:        defined
(PID.TID 0000.0001) // ALLOW_SST_COST_CONTRIBUTION:          defined
(PID.TID 0000.0001) // ALLOW_SALT_COST_CONTRIBUTION:         defined
(PID.TID 0000.0001) // ALLOW_SSH_COST_CONTRIBUTION:          defined
(PID.TID 0000.0001) // APPLY_HFLUX_COST_CONTRIBUTION:  NOT defined
(PID.TID 0000.0001) // APPLY_SFLUX_COST_CONTRIBUTION:  NOT defined
(PID.TID 0000.0001) // APPLY_USTRESS_COST_CONTRIBUTION: NOT defined
(PID.TID 0000.0001) // APPLY_VSTRESS_COST_CONTRIBUTION: NOT defined
(PID.TID 0000.0001) // APPLY_THETA_COST_CONTRIBUTION:  NOT defined
(PID.TID 0000.0001) // APPLY_SALT_COST_CONTRIBUTION:   NOT defined
(PID.TID 0000.0001) // APPLY_SST_COST_CONTRIBUTION:    NOT defined
(PID.TID 0000.0001) // APPLY_SSH_COST_CONTRIBUTION:    NOT defined
(PID.TID 0000.0001) // ALLOW_SPH_PROJECTION:             NOT defined
(PID.TID 0000.0001) // ALLOW_THETA0_CONTROL:                 defined
(PID.TID 0000.0001) // ALLOW_SALT0_CONTROL:                  defined
(PID.TID 0000.0001) // ALLOW_HFLUX_CONTROL:              NOT defined
(PID.TID 0000.0001) // ALLOW_SFLUX_CONTROL:              NOT defined
(PID.TID 0000.0001) // ALLOW_USTRESS_CONTROL:            NOT defined
(PID.TID 0000.0001) // ALLOW_VSTRESS_CONTROL:            NOT defined
(PID.TID 0000.0001) // ALLOW_SWFLUX_CONTROL:             NOT defined
(PID.TID 0000.0001) // ALLOW_LWFLUX_CONTROL:             NOT defined
(PID.TID 0000.0001) // ALLOW_ATEMP_CONTROL:                  defined
(PID.TID 0000.0001) // ALLOW_AQH_CONTROL:                    defined
(PID.TID 0000.0001) // ALLOW_UWIND_CONTROL:                  defined
(PID.TID 0000.0001) // ALLOW_VWIND_CONTROL:                  defined
(PID.TID 0000.0001) // ALLOW_PRECIP_CONTROL:             NOT defined
(PID.TID 0000.0001) // ALLOW_AUTODIFF_TAMC:                defined
(PID.TID 0000.0001) // ALLOW_TAMC_CHECKPOINTING:             defined
(PID.TID 0000.0001) 
(PID.TID 0000.0001)  Experiment name:  MIT_CE_000
(PID.TID 0000.0001) 
(PID.TID 0000.0001)  Generation of adjoint code for the ECCO setup is enabled
(PID.TID 0000.0001) 
(PID.TID 0000.0001) // =======================================================
(PID.TID 0000.0001) // ECCO configuration  >>> END <<<
(PID.TID 0000.0001) // =======================================================
(PID.TID 0000.0001) 
(PID.TID 0000.0001) KPP_CHECK: #define ALLOW_KPP
(PID.TID 0000.0001) SEAICE_CHECK: #define ALLOW_SEAICE
(PID.TID 0000.0001) // CG2D normalisation factor =          0.1609493984093919507084164E-03
(PID.TID 0000.0001) 
(PID.TID 0000.0001) // =======================================================
(PID.TID 0000.0001) // Model configuration
(PID.TID 0000.0001) // =======================================================
(PID.TID 0000.0001) //
(PID.TID 0000.0001) // "Physical" paramters ( PARM01 in namelist )
(PID.TID 0000.0001) //
(PID.TID 0000.0001) tRef =   /* Reference temperature profile ( oC or oK ) */
(PID.TID 0000.0001)                 2.400000000000000E+01,      /* K =  1 */
(PID.TID 0000.0001)                 2.300000000000000E+01,      /* K =  2 */
(PID.TID 0000.0001)                 2.200000000000000E+01,      /* K =  3 */
(PID.TID 0000.0001)                 2.100000000000000E+01,      /* K =  4 */
(PID.TID 0000.0001)                 2.000000000000000E+01,      /* K =  5 */
(PID.TID 0000.0001)                 1.900000000000000E+01,      /* K =  6 */
(PID.TID 0000.0001)                 1.800000000000000E+01,      /* K =  7 */
(PID.TID 0000.0001)                 1.700000000000000E+01,      /* K =  8 */
(PID.TID 0000.0001)                 1.600000000000000E+01,      /* K =  9 */
(PID.TID 0000.0001)                 1.500000000000000E+01,      /* K = 10 */
(PID.TID 0000.0001)                 1.400000000000000E+01,      /* K = 11 */
(PID.TID 0000.0001)                 1.300000000000000E+01,      /* K = 12 */
(PID.TID 0000.0001)                 1.200000000000000E+01,      /* K = 13 */
(PID.TID 0000.0001)                 1.100000000000000E+01,      /* K = 14 */
(PID.TID 0000.0001)                 1.000000000000000E+01,      /* K = 15 */
(PID.TID 0000.0001)                 9.000000000000000E+00,      /* K = 16 */
(PID.TID 0000.0001)                 8.000000000000000E+00,      /* K = 17 */
(PID.TID 0000.0001)                 7.000000000000000E+00,      /* K = 18 */
(PID.TID 0000.0001)                 6.000000000000000E+00,      /* K = 19 */
(PID.TID 0000.0001)                 5.000000000000000E+00,      /* K = 20 */
(PID.TID 0000.0001)                 4.000000000000000E+00,      /* K = 21 */
(PID.TID 0000.0001)                 3.000000000000000E+00,      /* K = 22 */
(PID.TID 0000.0001)                 2.000000000000000E+00       /* K = 23 */
(PID.TID 0000.0001)     ;
(PID.TID 0000.0001) sRef =   /* Reference salinity profile ( ppt ) */
(PID.TID 0000.0001)                 3.465000000000000E+01,      /* K =  1 */
(PID.TID 0000.0001)                 3.475000000000000E+01,      /* K =  2 */
(PID.TID 0000.0001)                 3.482000000000000E+01,      /* K =  3 */
(PID.TID 0000.0001)                 3.487000000000000E+01,      /* K =  4 */
(PID.TID 0000.0001)     2 @  3.490000000000000E+01,             /* K =  5:  6 */
(PID.TID 0000.0001)                 3.486000000000000E+01,      /* K =  7 */
(PID.TID 0000.0001)                 3.478000000000000E+01,      /* K =  8 */
(PID.TID 0000.0001)                 3.469000000000000E+01,      /* K =  9 */
(PID.TID 0000.0001)                 3.460000000000000E+01,      /* K = 10 */
(PID.TID 0000.0001)                 3.458000000000000E+01,      /* K = 11 */
(PID.TID 0000.0001)                 3.462000000000000E+01,      /* K = 12 */
(PID.TID 0000.0001)                 3.468000000000000E+01,      /* K = 13 */
(PID.TID 0000.0001)                 3.472000000000000E+01,      /* K = 14 */
(PID.TID 0000.0001)                 3.473000000000000E+01,      /* K = 15 */
(PID.TID 0000.0001)                 3.474000000000000E+01,      /* K = 16 */
(PID.TID 0000.0001)     2 @  3.473000000000000E+01,             /* K = 17: 18 */
(PID.TID 0000.0001)     2 @  3.472000000000000E+01,             /* K = 19: 20 */
(PID.TID 0000.0001)                 3.471000000000000E+01,      /* K = 21 */
(PID.TID 0000.0001)                 3.470000000000000E+01,      /* K = 22 */
(PID.TID 0000.0001)                 3.469000000000000E+01       /* K = 23 */
(PID.TID 0000.0001)     ;
(PID.TID 0000.0001) viscAh =   /* Lateral eddy viscosity ( m^2/s ) */
(PID.TID 0000.0001)                 5.000000000000000E+04
(PID.TID 0000.0001)     ;
(PID.TID 0000.0001) viscAh =   /* Lateral biharmonic viscosity ( m^4/s ) */
(PID.TID 0000.0001)                 0.000000000000000E+00
(PID.TID 0000.0001)     ;
(PID.TID 0000.0001) no_slip_sides =  /* Viscous BCs: No-slip sides */
(PID.TID 0000.0001)                   F
(PID.TID 0000.0001)     ;
(PID.TID 0000.0001) viscAz =   /* Vertical eddy viscosity ( m^2/s ) */
(PID.TID 0000.0001)                 1.000000000000000E-03
(PID.TID 0000.0001)     ;
(PID.TID 0000.0001) viscAr =   /* Vertical eddy viscosity ( units of r^2/s ) */
(PID.TID 0000.0001)                 1.000000000000000E-03
(PID.TID 0000.0001)     ;
(PID.TID 0000.0001) diffKhT =   /* Laplacian diffusion of heat laterally ( m^2/s ) */
(PID.TID 0000.0001)                 1.000000000000000E+03
(PID.TID 0000.0001)     ;
(PID.TID 0000.0001) diffK4T =   /* Bihaarmonic diffusion of heat laterally ( m^4/s ) */
(PID.TID 0000.0001)                 0.000000000000000E+00
(PID.TID 0000.0001)     ;
(PID.TID 0000.0001) diffKzT =   /* Laplacian diffusion of heat vertically ( m^2/s ) */
(PID.TID 0000.0001)                 1.000000000000000E-05
(PID.TID 0000.0001)     ;
(PID.TID 0000.0001) diffKrT =   /* Laplacian diffusion of heat vertically ( m^2/s ) */
(PID.TID 0000.0001)                 1.000000000000000E-05
(PID.TID 0000.0001)     ;
(PID.TID 0000.0001) diffKhS =   /* Laplacian diffusion of salt laterally ( m^2/s ) */
(PID.TID 0000.0001)                 1.000000000000000E+03
(PID.TID 0000.0001)     ;
(PID.TID 0000.0001) diffK4S =   /* Bihaarmonic diffusion of salt laterally ( m^4/s ) */
(PID.TID 0000.0001)                 0.000000000000000E+00
(PID.TID 0000.0001)     ;
(PID.TID 0000.0001) diffKzS =   /* Laplacian diffusion of salt vertically ( m^2/s ) */
(PID.TID 0000.0001)                 1.000000000000000E-05
(PID.TID 0000.0001)     ;
(PID.TID 0000.0001) diffKrS =   /* Laplacian diffusion of salt vertically ( m^2/s ) */
(PID.TID 0000.0001)                 1.000000000000000E-05
(PID.TID 0000.0001)     ;
(PID.TID 0000.0001) tAlpha =   /* Linear EOS thermal expansion coefficient ( 1/degree ) */
(PID.TID 0000.0001)                 2.000000000000000E-04
(PID.TID 0000.0001)     ;
(PID.TID 0000.0001) sBeta =   /* Linear EOS haline contraction coefficient ( 1/ppt ) */
(PID.TID 0000.0001)                 7.400000000000000E-04
(PID.TID 0000.0001)     ;
(PID.TID 0000.0001)   1  13.499  32.600  24.480  -0.201   0.771  -0.005  -0.002   0.000   0.000   0.000   0.000   0.000
(PID.TID 0000.0001)   2  13.498  32.600  24.525  -0.202   0.771  -0.005  -0.002   0.000   0.000   0.000   0.000   0.000
(PID.TID 0000.0001)   3  13.496  32.600  24.581  -0.202   0.771  -0.005  -0.002   0.000   0.000   0.000   0.000   0.000
(PID.TID 0000.0001)   4  13.494  32.600  24.660  -0.202   0.771  -0.005  -0.002   0.000   0.000   0.000   0.000   0.000
(PID.TID 0000.0001)   5  13.491  32.600  24.750  -0.203   0.771  -0.005  -0.002   0.000   0.000   0.000   0.000   0.000
(PID.TID 0000.0001)   6  13.488  32.600  24.851  -0.203   0.770  -0.005  -0.002   0.000   0.000   0.000   0.000   0.000
(PID.TID 0000.0001)   7  13.484  32.600  24.985  -0.204   0.770  -0.005  -0.002   0.000   0.000   0.000   0.000   0.000
(PID.TID 0000.0001)   8  13.478  32.600  25.176  -0.204   0.770  -0.005  -0.002   0.000   0.000   0.000   0.000   0.000
(PID.TID 0000.0001)   9  13.469  32.600  25.456  -0.205   0.769  -0.005  -0.002   0.000   0.000   0.000   0.000   0.000
(PID.TID 0000.0001)  10   8.467  35.150  28.748  -0.163   0.781  -0.005  -0.002   0.001   0.000   0.000   0.000   0.000
(PID.TID 0000.0001)  11   8.454  35.150  29.315  -0.166   0.780  -0.005  -0.002   0.001   0.000   0.000   0.000   0.000
(PID.TID 0000.0001)  12   5.946  34.900  30.300  -0.143   0.785  -0.006  -0.002   0.001   0.000   0.000   0.000   0.000
(PID.TID 0000.0001)  13   4.433  34.900  31.591  -0.132   0.786  -0.006  -0.003   0.000   0.000   0.000   0.000   0.000
(PID.TID 0000.0001)  14   3.909  34.750  32.966  -0.134   0.785  -0.006  -0.003   0.000   0.000   0.000   0.000   0.000
(PID.TID 0000.0001)  15   1.899  34.800  35.002  -0.121   0.787  -0.006  -0.003   0.000   0.000   0.000   0.000   0.000
(PID.TID 0000.0001)  16   1.372  34.750  36.991  -0.127   0.785  -0.006  -0.003  -0.001   0.000   0.000   0.000   0.000
(PID.TID 0000.0001)  17   1.332  34.800  39.171  -0.140   0.782  -0.006  -0.003  -0.001   0.000   0.000   0.000   0.000
(PID.TID 0000.0001)  18   0.797  34.800  41.472  -0.147   0.779  -0.006  -0.003  -0.001   0.000   0.000   0.000   0.000
(PID.TID 0000.0001)  19   0.749  34.800  43.682  -0.160   0.775  -0.005  -0.002  -0.002   0.000   0.000   0.000   0.000
(PID.TID 0000.0001)  20   0.214  34.750  45.912  -0.168   0.772  -0.005  -0.002  -0.002   0.000   0.000   0.000   0.000
(PID.TID 0000.0001)  21   0.160  34.750  48.080  -0.181   0.768  -0.005  -0.002  -0.003   0.000   0.000   0.000   0.000
(PID.TID 0000.0001)  22   0.584  34.750  50.131  -0.197   0.763  -0.005  -0.002  -0.001   0.000   0.000   0.000   0.000
(PID.TID 0000.0001)  23   0.522  34.750  52.248  -0.209   0.760  -0.005  -0.002  -0.002   0.000   0.000   0.000   0.000
(PID.TID 0000.0001) rhonil =   /* Reference density ( kg/m^3 ) */
(PID.TID 0000.0001)                 9.998000000000000E+02
(PID.TID 0000.0001)     ;
(PID.TID 0000.0001) rhoConst =   /* Reference density ( kg/m^3 ) */
(PID.TID 0000.0001)                 9.998000000000000E+02
(PID.TID 0000.0001)     ;
(PID.TID 0000.0001) gravity =   /* Gravitational acceleration ( m/s^2 ) */
(PID.TID 0000.0001)                 9.810000000000000E+00
(PID.TID 0000.0001)     ;
(PID.TID 0000.0001) gBaro =   /* Barotropic gravity ( m/s^2 ) */
(PID.TID 0000.0001)                 9.810000000000000E+00
(PID.TID 0000.0001)     ;
(PID.TID 0000.0001) f0 =   /* Reference coriolis parameter ( 1/s ) */
(PID.TID 0000.0001)                 1.000000000000000E-04
(PID.TID 0000.0001)     ;
(PID.TID 0000.0001) beta =   /* Beta ( 1/(m.s) ) */
(PID.TID 0000.0001)                 9.999999999999999E-12
(PID.TID 0000.0001)     ;
(PID.TID 0000.0001) freeSurfFac =   /* Implicit free surface factor */
(PID.TID 0000.0001)                 1.000000000000000E+00
(PID.TID 0000.0001)     ;
(PID.TID 0000.0001) implicitFreeSurface =   /* Implicit free surface on/off flag */
(PID.TID 0000.0001)                   T
(PID.TID 0000.0001)     ;
(PID.TID 0000.0001) rigidLid =   /* Rigid lid on/off flag */
(PID.TID 0000.0001)                   F
(PID.TID 0000.0001)     ;
(PID.TID 0000.0001) implicSurfPress =   /* Surface Pressure implicit factor (0-1)*/
(PID.TID 0000.0001)                 1.000000000000000E+00
(PID.TID 0000.0001)     ;
(PID.TID 0000.0001) implicDiv2Dflow =   /* Barot. Flow Div. implicit factor (0-1)*/
(PID.TID 0000.0001)                 1.000000000000000E+00
(PID.TID 0000.0001)     ;
(PID.TID 0000.0001) staggerTimeStep =   /* Stagger time stepping on/off flag */
(PID.TID 0000.0001)                   F
(PID.TID 0000.0001)     ;
(PID.TID 0000.0001) momStepping =  /* Momentum equation on/off flag */
(PID.TID 0000.0001)                   T
(PID.TID 0000.0001)     ;
(PID.TID 0000.0001) momAdvection =  /* Momentum advection on/off flag */
(PID.TID 0000.0001)                   T
(PID.TID 0000.0001)     ;
(PID.TID 0000.0001) momViscosity =  /* Momentum viscosity on/off flag */
(PID.TID 0000.0001)                   T
(PID.TID 0000.0001)     ;
(PID.TID 0000.0001) useCoriolis =  /* Coriolis on/off flag */
(PID.TID 0000.0001)                   T
(PID.TID 0000.0001)     ;
(PID.TID 0000.0001) momForcing =  /* Momentum forcing on/off flag */
(PID.TID 0000.0001)                   T
(PID.TID 0000.0001)     ;
(PID.TID 0000.0001) momPressureForcing =  /* Momentum pressure term on/off flag */
(PID.TID 0000.0001)                   T
(PID.TID 0000.0001)     ;
(PID.TID 0000.0001) tempStepping =  /* Temperature equation on/off flag */
(PID.TID 0000.0001)                   T
(PID.TID 0000.0001)     ;
(PID.TID 0000.0001) nonHydrostatic =  /* Non-Hydrostatic on/off flag */
(PID.TID 0000.0001)                   F
(PID.TID 0000.0001)     ;
(PID.TID 0000.0001) //
(PID.TID 0000.0001) // Elliptic solver(s) paramters ( PARM02 in namelist )
(PID.TID 0000.0001) //
(PID.TID 0000.0001) cg2dMaxIters =   /* Upper limit on 2d con. grad iterations  */
(PID.TID 0000.0001)                    1000
(PID.TID 0000.0001)     ;
(PID.TID 0000.0001) cg2dChkResFreq =   /* 2d con. grad convergence test frequency */
(PID.TID 0000.0001)                       1
(PID.TID 0000.0001)     ;
(PID.TID 0000.0001) cg2dTargetResidual =   /* 2d con. grad target residual  */
(PID.TID 0000.0001)                 1.000000000000000E-13
(PID.TID 0000.0001)     ;
(PID.TID 0000.0001) //
(PID.TID 0000.0001) // Time stepping paramters ( PARM03 in namelist )
(PID.TID 0000.0001) //
(PID.TID 0000.0001) nIter0 =   /* Base timestep number  */
(PID.TID 0000.0001)                       0
(PID.TID 0000.0001)     ;
(PID.TID 0000.0001) nTimeSteps =   /* Number of timesteps */
(PID.TID 0000.0001)                       4
(PID.TID 0000.0001)     ;
(PID.TID 0000.0001) deltatTmom =   /* Momentum equation timestep ( s ) */
(PID.TID 0000.0001)                 3.600000000000000E+03
(PID.TID 0000.0001)     ;
(PID.TID 0000.0001) deltatTtracer =   /* Tracer equation timestep ( s ) */
(PID.TID 0000.0001)                 3.600000000000000E+03
(PID.TID 0000.0001)     ;
(PID.TID 0000.0001) deltatTClock  =   /* Model clock timestep ( s ) */
(PID.TID 0000.0001)                 3.600000000000000E+03
(PID.TID 0000.0001)     ;
(PID.TID 0000.0001) cAdjFreq =   /* Convective adjustment interval ( s ) */
(PID.TID 0000.0001)                 0.000000000000000E+00
(PID.TID 0000.0001)     ;
(PID.TID 0000.0001) abeps =   /* Adams-Bashforth stabilizing weight */
(PID.TID 0000.0001)                 1.000000000000000E-01
(PID.TID 0000.0001)     ;
(PID.TID 0000.0001) tauCD =   /* CD coupling time-scale ( s ) */
(PID.TID 0000.0001)                 1.728000000000000E+05
(PID.TID 0000.0001)     ;
(PID.TID 0000.0001) rCD =   /* Normalised CD coupling parameter */
(PID.TID 0000.0001)                 9.791666666666666E-01
(PID.TID 0000.0001)     ;
(PID.TID 0000.0001) startTime =   /* Run start time ( s ). */
(PID.TID 0000.0001)                 0.000000000000000E+00
(PID.TID 0000.0001)     ;
(PID.TID 0000.0001) endTime =   /* Integration ending time ( s ). */
(PID.TID 0000.0001)                 1.440000000000000E+04
(PID.TID 0000.0001)     ;
(PID.TID 0000.0001) pChkPtFreq =   /* Permanent restart/checkpoint file interval ( s ). */
(PID.TID 0000.0001)                 1.555200000000000E+07
(PID.TID 0000.0001)     ;
(PID.TID 0000.0001) chkPtFreq =   /* Rolling restart/checkpoint file interval ( s ). */
(PID.TID 0000.0001)                 1.555200000000000E+07
(PID.TID 0000.0001)     ;
(PID.TID 0000.0001) dumpFreq =   /* Model state write out interval ( s ). */
(PID.TID 0000.0001)                 8.640000000000000E+04
(PID.TID 0000.0001)     ;
(PID.TID 0000.0001) //
(PID.TID 0000.0001) // Gridding paramters ( PARM04 in namelist )
(PID.TID 0000.0001) //
(PID.TID 0000.0001) usingCartesianGrid =   /* Cartesian coordinates flag ( True / False ) */
(PID.TID 0000.0001)                   F
(PID.TID 0000.0001)     ;
(PID.TID 0000.0001) usingSphericalPolarGrid =   /* Spherical coordinates flag ( True / False ) */
(PID.TID 0000.0001)                   T
(PID.TID 0000.0001)     ;
(PID.TID 0000.0001) groundAtK1 =   /* Lower Boundary (ground) at the surface(k=1) ( T / F ) */
(PID.TID 0000.0001)                   F
(PID.TID 0000.0001)     ;
(PID.TID 0000.0001) Ro_SeaLevel =   /* r(1) ( units of r ) */
(PID.TID 0000.0001)                 0.000000000000000E+00
(PID.TID 0000.0001)     ;
(PID.TID 0000.0001) rkFac =   /* minus Vertical index orientation  */
(PID.TID 0000.0001)                 1.000000000000000E+00
(PID.TID 0000.0001)     ;
(PID.TID 0000.0001) horiVertRatio =   /* Ratio on units : Horiz - Vertical */
(PID.TID 0000.0001)                 1.000000000000000E+00
(PID.TID 0000.0001)     ;
(PID.TID 0000.0001) delZ =   /* W spacing ( m ) */
(PID.TID 0000.0001)     2 @  1.000000000000000E+01,             /* K =  1:  2 */
(PID.TID 0000.0001)                 1.500000000000000E+01,      /* K =  3 */
(PID.TID 0000.0001)     2 @  2.000000000000000E+01,             /* K =  4:  5 */
(PID.TID 0000.0001)                 2.500000000000000E+01,      /* K =  6 */
(PID.TID 0000.0001)                 3.500000000000000E+01,      /* K =  7 */
(PID.TID 0000.0001)                 5.000000000000000E+01,      /* K =  8 */
(PID.TID 0000.0001)                 7.500000000000000E+01,      /* K =  9 */
(PID.TID 0000.0001)                 1.000000000000000E+02,      /* K = 10 */
(PID.TID 0000.0001)                 1.500000000000000E+02,      /* K = 11 */
(PID.TID 0000.0001)                 2.000000000000000E+02,      /* K = 12 */
(PID.TID 0000.0001)                 2.750000000000000E+02,      /* K = 13 */
(PID.TID 0000.0001)                 3.500000000000000E+02,      /* K = 14 */
(PID.TID 0000.0001)                 4.150000000000000E+02,      /* K = 15 */
(PID.TID 0000.0001)                 4.500000000000000E+02,      /* K = 16 */
(PID.TID 0000.0001)     7 @  5.000000000000000E+02              /* K = 17: 23 */
(PID.TID 0000.0001)     ;
(PID.TID 0000.0001) delP =   /* W spacing ( Pa ) */
(PID.TID 0000.0001)    23 @  1.234567000000000E+05              /* K =  1: 23 */
(PID.TID 0000.0001)     ;
(PID.TID 0000.0001) delR =   /* W spacing ( units of r ) */
(PID.TID 0000.0001)     2 @  1.000000000000000E+01,             /* K =  1:  2 */
(PID.TID 0000.0001)                 1.500000000000000E+01,      /* K =  3 */
(PID.TID 0000.0001)     2 @  2.000000000000000E+01,             /* K =  4:  5 */
(PID.TID 0000.0001)                 2.500000000000000E+01,      /* K =  6 */
(PID.TID 0000.0001)                 3.500000000000000E+01,      /* K =  7 */
(PID.TID 0000.0001)                 5.000000000000000E+01,      /* K =  8 */
(PID.TID 0000.0001)                 7.500000000000000E+01,      /* K =  9 */
(PID.TID 0000.0001)                 1.000000000000000E+02,      /* K = 10 */
(PID.TID 0000.0001)                 1.500000000000000E+02,      /* K = 11 */
(PID.TID 0000.0001)                 2.000000000000000E+02,      /* K = 12 */
(PID.TID 0000.0001)                 2.750000000000000E+02,      /* K = 13 */
(PID.TID 0000.0001)                 3.500000000000000E+02,      /* K = 14 */
(PID.TID 0000.0001)                 4.150000000000000E+02,      /* K = 15 */
(PID.TID 0000.0001)                 4.500000000000000E+02,      /* K = 16 */
(PID.TID 0000.0001)     7 @  5.000000000000000E+02              /* K = 17: 23 */
(PID.TID 0000.0001)     ;
(PID.TID 0000.0001) delX =   /* U spacing ( m - cartesian, degrees - spherical ) */
(PID.TID 0000.0001)    20 @  2.000000000000000E+00              /* I =  1: 20 */
(PID.TID 0000.0001)     ;
(PID.TID 0000.0001) delY =   /* V spacing ( m - cartesian, degrees - spherical ) */
(PID.TID 0000.0001)    16 @  2.000000000000000E+00              /* J =  1: 16 */
(PID.TID 0000.0001)     ;
(PID.TID 0000.0001) phiMin =    /* South edge (ignored - cartesian, degrees - spherical ) */
(PID.TID 0000.0001)                 4.600000000000000E+01
(PID.TID 0000.0001)     ;
(PID.TID 0000.0001) thetaMin =    /* West edge ( ignored - cartesian, degrees - spherical ) */
(PID.TID 0000.0001)                 2.800000000000000E+02
(PID.TID 0000.0001)     ;
(PID.TID 0000.0001) rSphere =    /* Radius ( ignored - cartesian, m - spherical ) */
(PID.TID 0000.0001)                 6.371000000000000E+06
(PID.TID 0000.0001)     ;
(PID.TID 0000.0001) xcoord =   /* P-point X coord ( m - cartesian, degrees - spherical ) */
(PID.TID 0000.0001)                 2.810000000000000E+02,      /* I =  1 */
(PID.TID 0000.0001)                 2.830000000000000E+02,      /* I =  2 */
(PID.TID 0000.0001)                 2.850000000000000E+02,      /* I =  3 */
(PID.TID 0000.0001)                 2.870000000000000E+02,      /* I =  4 */
(PID.TID 0000.0001)                 2.890000000000000E+02,      /* I =  5 */
(PID.TID 0000.0001)                 2.910000000000000E+02,      /* I =  6 */
(PID.TID 0000.0001)                 2.930000000000000E+02,      /* I =  7 */
(PID.TID 0000.0001)                 2.950000000000000E+02,      /* I =  8 */
(PID.TID 0000.0001)                 2.970000000000000E+02,      /* I =  9 */
(PID.TID 0000.0001)                 2.990000000000000E+02,      /* I = 10 */
(PID.TID 0000.0001)                 3.010000000000000E+02,      /* I = 11 */
(PID.TID 0000.0001)                 3.030000000000000E+02,      /* I = 12 */
(PID.TID 0000.0001)                 3.050000000000000E+02,      /* I = 13 */
(PID.TID 0000.0001)                 3.070000000000000E+02,      /* I = 14 */
(PID.TID 0000.0001)                 3.090000000000000E+02,      /* I = 15 */
(PID.TID 0000.0001)                 3.110000000000000E+02,      /* I = 16 */
(PID.TID 0000.0001)                 3.130000000000000E+02,      /* I = 17 */
(PID.TID 0000.0001)                 3.150000000000000E+02,      /* I = 18 */
(PID.TID 0000.0001)                 3.170000000000000E+02,      /* I = 19 */
(PID.TID 0000.0001)                 3.190000000000000E+02       /* I = 20 */
(PID.TID 0000.0001)     ;
(PID.TID 0000.0001) ycoord =   /* P-point Y coord ( m - cartesian, degrees - spherical ) */
(PID.TID 0000.0001)                 4.700000000000000E+01,      /* J =  1 */
(PID.TID 0000.0001)                 4.900000000000000E+01,      /* J =  2 */
(PID.TID 0000.0001)                 5.100000000000000E+01,      /* J =  3 */
(PID.TID 0000.0001)                 5.300000000000000E+01,      /* J =  4 */
(PID.TID 0000.0001)                 5.500000000000000E+01,      /* J =  5 */
(PID.TID 0000.0001)                 5.700000000000000E+01,      /* J =  6 */
(PID.TID 0000.0001)                 5.900000000000000E+01,      /* J =  7 */
(PID.TID 0000.0001)                 6.100000000000000E+01,      /* J =  8 */
(PID.TID 0000.0001)                 6.300000000000000E+01,      /* J =  9 */
(PID.TID 0000.0001)                 6.500000000000000E+01,      /* J = 10 */
(PID.TID 0000.0001)                 6.700000000000000E+01,      /* J = 11 */
(PID.TID 0000.0001)                 6.900000000000000E+01,      /* J = 12 */
(PID.TID 0000.0001)                 7.100000000000000E+01,      /* J = 13 */
(PID.TID 0000.0001)                 7.300000000000000E+01,      /* J = 14 */
(PID.TID 0000.0001)                 7.500000000000000E+01,      /* J = 15 */
(PID.TID 0000.0001)                 7.700000000000000E+01       /* J = 16 */
(PID.TID 0000.0001)     ;
(PID.TID 0000.0001) rcoord =   /* P-point R coordinate (  units of r ) */
(PID.TID 0000.0001)                -5.000000000000000E+00,      /* K =  1 */
(PID.TID 0000.0001)                -1.500000000000000E+01,      /* K =  2 */
(PID.TID 0000.0001)                -2.750000000000000E+01,      /* K =  3 */
(PID.TID 0000.0001)                -4.500000000000000E+01,      /* K =  4 */
(PID.TID 0000.0001)                -6.500000000000000E+01,      /* K =  5 */
(PID.TID 0000.0001)                -8.750000000000000E+01,      /* K =  6 */
(PID.TID 0000.0001)                -1.175000000000000E+02,      /* K =  7 */
(PID.TID 0000.0001)                -1.600000000000000E+02,      /* K =  8 */
(PID.TID 0000.0001)                -2.225000000000000E+02,      /* K =  9 */
(PID.TID 0000.0001)                -3.100000000000000E+02,      /* K = 10 */
(PID.TID 0000.0001)                -4.350000000000000E+02,      /* K = 11 */
(PID.TID 0000.0001)                -6.100000000000000E+02,      /* K = 12 */
(PID.TID 0000.0001)                -8.475000000000000E+02,      /* K = 13 */
(PID.TID 0000.0001)                -1.160000000000000E+03,      /* K = 14 */
(PID.TID 0000.0001)                -1.542500000000000E+03,      /* K = 15 */
(PID.TID 0000.0001)                -1.975000000000000E+03,      /* K = 16 */
(PID.TID 0000.0001)                -2.450000000000000E+03,      /* K = 17 */
(PID.TID 0000.0001)                -2.950000000000000E+03,      /* K = 18 */
(PID.TID 0000.0001)                -3.450000000000000E+03,      /* K = 19 */
(PID.TID 0000.0001)                -3.950000000000000E+03,      /* K = 20 */
(PID.TID 0000.0001)                -4.450000000000000E+03,      /* K = 21 */
(PID.TID 0000.0001)                -4.950000000000000E+03,      /* K = 22 */
(PID.TID 0000.0001)                -5.450000000000000E+03       /* K = 23 */
(PID.TID 0000.0001)     ;
(PID.TID 0000.0001) dxF =  /* dxF(:,1,:,1) ( m - cartesian, degrees - spherical ) */
(PID.TID 0000.0001)    20 @  1.516695152377177E+05              /* I =  1: 20 */
(PID.TID 0000.0001)     ;
(PID.TID 0000.0001) dxF =  /* dxF(1,:,1,:) ( m - cartesian, degrees - spherical ) */
(PID.TID 0000.0001)                 1.516695152377177E+05,      /* J =  1 */
(PID.TID 0000.0001)                 1.459008712061998E+05,      /* J =  2 */
(PID.TID 0000.0001)                 1.399544694374234E+05,      /* J =  3 */
(PID.TID 0000.0001)                 1.338375547059709E+05,      /* J =  4 */
(PID.TID 0000.0001)                 1.275575795302040E+05,      /* J =  5 */
(PID.TID 0000.0001)                 1.211221950925184E+05,      /* J =  6 */
(PID.TID 0000.0001)                 1.145392419175564E+05,      /* J =  7 */
(PID.TID 0000.0001)                 1.078167403197357E+05,      /* J =  8 */
(PID.TID 0000.0001)                 1.009628806317309E+05,      /* J =  9 */
(PID.TID 0000.0001)                 9.398601322581599E+04,      /* J = 10 */
(PID.TID 0000.0001)                 8.689463834022089E+04,      /* J = 11 */
(PID.TID 0000.0001)                 7.969739572290120E+04,      /* J = 12 */
(PID.TID 0000.0001)                 7.240305410533582E+04,      /* J = 13 */
(PID.TID 0000.0001)                 6.502050051917860E+04,      /* J = 14 */
(PID.TID 0000.0001)                 5.755872946877906E+04,      /* J = 15 */
(PID.TID 0000.0001)                 5.002683197276441E+04       /* J = 16 */
(PID.TID 0000.0001)     ;
(PID.TID 0000.0001) dyF =  /* dyF(:,1,:,1) ( m - cartesian, degrees - spherical ) */
(PID.TID 0000.0001)    20 @  2.223898532891175E+05              /* I =  1: 20 */
(PID.TID 0000.0001)     ;
(PID.TID 0000.0001) dyF =  /* dyF(1,:,1,:) ( m - cartesian, degrees - spherical ) */
(PID.TID 0000.0001)    16 @  2.223898532891175E+05              /* J =  1: 16 */
(PID.TID 0000.0001)     ;
(PID.TID 0000.0001) dxG =  /* dxG(:,1,:,1) ( m - cartesian, degrees - spherical ) */
(PID.TID 0000.0001)    20 @  1.544849730924338E+05              /* I =  1: 20 */
(PID.TID 0000.0001)     ;
(PID.TID 0000.0001) dxG =  /* dxG(1,:,1,:) ( m - cartesian, degrees - spherical ) */
(PID.TID 0000.0001)                 1.544849730924338E+05,      /* J =  1 */
(PID.TID 0000.0001)                 1.488078573794047E+05,      /* J =  2 */
(PID.TID 0000.0001)                 1.429494422142520E+05,      /* J =  3 */
(PID.TID 0000.0001)                 1.369168651734348E+05,      /* J =  4 */
(PID.TID 0000.0001)                 1.307174760228300E+05,      /* J =  5 */
(PID.TID 0000.0001)                 1.243588277631750E+05,      /* J =  6 */
(PID.TID 0000.0001)                 1.178486674278995E+05,      /* J =  7 */
(PID.TID 0000.0001)                 1.111949266445588E+05,      /* J =  8 */
(PID.TID 0000.0001)                 1.044057119713670E+05,      /* J =  9 */
(PID.TID 0000.0001)                 9.748929502060510E+04,      /* J = 10 */
(PID.TID 0000.0001)                 9.045410238093534E+04,      /* J = 11 */
(PID.TID 0000.0001)                 8.330870535090074E+04,      /* J = 12 */
(PID.TID 0000.0001)                 7.606180949611843E+04,      /* J = 13 */
(PID.TID 0000.0001)                 6.872224404288860E+04,      /* J = 14 */
(PID.TID 0000.0001)                 6.129895112114272E+04,      /* J = 15 */
(PID.TID 0000.0001)                 5.380097486983529E+04       /* J = 16 */
(PID.TID 0000.0001)     ;
(PID.TID 0000.0001) dyG =  /* dyG(:,1,:,1) ( m - cartesian, degrees - spherical ) */
(PID.TID 0000.0001)    20 @  2.223898532891175E+05              /* I =  1: 20 */
(PID.TID 0000.0001)     ;
(PID.TID 0000.0001) dyG =  /* dyG(1,:,1,:) ( m - cartesian, degrees - spherical ) */
(PID.TID 0000.0001)    16 @  2.223898532891175E+05              /* J =  1: 16 */
(PID.TID 0000.0001)     ;
(PID.TID 0000.0001) dxC =  /* dxC(:,1,:,1) ( m - cartesian, degrees - spherical ) */
(PID.TID 0000.0001)    20 @  1.516695152377177E+05              /* I =  1: 20 */
(PID.TID 0000.0001)     ;
(PID.TID 0000.0001) dxC =  /* dxC(1,:,1,:) ( m - cartesian, degrees - spherical ) */
(PID.TID 0000.0001)                 1.516695152377177E+05,      /* J =  1 */
(PID.TID 0000.0001)                 1.459008712061998E+05,      /* J =  2 */
(PID.TID 0000.0001)                 1.399544694374234E+05,      /* J =  3 */
(PID.TID 0000.0001)                 1.338375547059709E+05,      /* J =  4 */
(PID.TID 0000.0001)                 1.275575795302040E+05,      /* J =  5 */
(PID.TID 0000.0001)                 1.211221950925184E+05,      /* J =  6 */
(PID.TID 0000.0001)                 1.145392419175564E+05,      /* J =  7 */
(PID.TID 0000.0001)                 1.078167403197357E+05,      /* J =  8 */
(PID.TID 0000.0001)                 1.009628806317309E+05,      /* J =  9 */
(PID.TID 0000.0001)                 9.398601322581599E+04,      /* J = 10 */
(PID.TID 0000.0001)                 8.689463834022089E+04,      /* J = 11 */
(PID.TID 0000.0001)                 7.969739572290120E+04,      /* J = 12 */
(PID.TID 0000.0001)                 7.240305410533582E+04,      /* J = 13 */
(PID.TID 0000.0001)                 6.502050051917860E+04,      /* J = 14 */
(PID.TID 0000.0001)                 5.755872946877906E+04,      /* J = 15 */
(PID.TID 0000.0001)                 5.002683197276441E+04       /* J = 16 */
(PID.TID 0000.0001)     ;
(PID.TID 0000.0001) dyC =  /* dyC(:,1,:,1) ( m - cartesian, degrees - spherical ) */
(PID.TID 0000.0001)    20 @  2.223898532891175E+05              /* I =  1: 20 */
(PID.TID 0000.0001)     ;
(PID.TID 0000.0001) dyC =  /* dyC(1,:,1,:) ( m - cartesian, degrees - spherical ) */
(PID.TID 0000.0001)    16 @  2.223898532891175E+05              /* J =  1: 16 */
(PID.TID 0000.0001)     ;
(PID.TID 0000.0001) dxV =  /* dxV(:,1,:,1) ( m - cartesian, degrees - spherical ) */
(PID.TID 0000.0001)    20 @  1.544849730924338E+05              /* I =  1: 20 */
(PID.TID 0000.0001)     ;
(PID.TID 0000.0001) dxV =  /* dxV(1,:,1,:) ( m - cartesian, degrees - spherical ) */
(PID.TID 0000.0001)                 1.544849730924338E+05,      /* J =  1 */
(PID.TID 0000.0001)                 1.488078573794047E+05,      /* J =  2 */
(PID.TID 0000.0001)                 1.429494422142520E+05,      /* J =  3 */
(PID.TID 0000.0001)                 1.369168651734348E+05,      /* J =  4 */
(PID.TID 0000.0001)                 1.307174760228300E+05,      /* J =  5 */
(PID.TID 0000.0001)                 1.243588277631750E+05,      /* J =  6 */
(PID.TID 0000.0001)                 1.178486674278995E+05,      /* J =  7 */
(PID.TID 0000.0001)                 1.111949266445588E+05,      /* J =  8 */
(PID.TID 0000.0001)                 1.044057119713670E+05,      /* J =  9 */
(PID.TID 0000.0001)                 9.748929502060510E+04,      /* J = 10 */
(PID.TID 0000.0001)                 9.045410238093534E+04,      /* J = 11 */
(PID.TID 0000.0001)                 8.330870535090074E+04,      /* J = 12 */
(PID.TID 0000.0001)                 7.606180949611843E+04,      /* J = 13 */
(PID.TID 0000.0001)                 6.872224404288860E+04,      /* J = 14 */
(PID.TID 0000.0001)                 6.129895112114272E+04,      /* J = 15 */
(PID.TID 0000.0001)                 5.380097486983529E+04       /* J = 16 */
(PID.TID 0000.0001)     ;
(PID.TID 0000.0001) dyU =  /* dyU(:,1,:,1) ( m - cartesian, degrees - spherical ) */
(PID.TID 0000.0001)    20 @  2.223898532891175E+05              /* I =  1: 20 */
(PID.TID 0000.0001)     ;
(PID.TID 0000.0001) dyU =  /* dyU(1,:,1,:) ( m - cartesian, degrees - spherical ) */
(PID.TID 0000.0001)    16 @  2.223898532891175E+05              /* J =  1: 16 */
(PID.TID 0000.0001)     ;
(PID.TID 0000.0001) rA =  /* rA(:,1,:,1) ( m - cartesian, degrees - spherical ) */
(PID.TID 0000.0001)    20 @  3.372804882275624E+10              /* I =  1: 20 */
(PID.TID 0000.0001)     ;
(PID.TID 0000.0001) rA =  /* rA(1,:,1,:) ( m - cartesian, degrees - spherical ) */
(PID.TID 0000.0001)                 3.372804882275624E+10,      /* J =  1 */
(PID.TID 0000.0001)                 3.244522605358470E+10,      /* J =  2 */
(PID.TID 0000.0001)                 3.112287377427101E+10,      /* J =  3 */
(PID.TID 0000.0001)                 2.976260306737436E+10,      /* J =  4 */
(PID.TID 0000.0001)                 2.836607121321785E+10,      /* J =  5 */
(PID.TID 0000.0001)                 2.693497967074625E+10,      /* J =  6 */
(PID.TID 0000.0001)                 2.547107200456124E+10,      /* J =  7 */
(PID.TID 0000.0001)                 2.397613176065687E+10,      /* J =  8 */
(PID.TID 0000.0001)                 2.245198029344195E+10,      /* J =  9 */
(PID.TID 0000.0001)                 2.090047454670190E+10,      /* J = 10 */
(PID.TID 0000.0001)                 1.932350479119800E+10,      /* J = 11 */
(PID.TID 0000.0001)                 1.772299232166364E+10,      /* J = 12 */
(PID.TID 0000.0001)                 1.610088711600325E+10,      /* J = 13 */
(PID.TID 0000.0001)                 1.445916545954342E+10,      /* J = 14 */
(PID.TID 0000.0001)                 1.279982753723484E+10,      /* J = 15 */
(PID.TID 0000.0001)                 1.112489499673436E+10       /* J = 16 */
(PID.TID 0000.0001)     ;
(PID.TID 0000.0001) rAw =  /* rAw(:,1,:,1) ( m - cartesian, degrees - spherical ) */
(PID.TID 0000.0001)    20 @  3.372804882275624E+10              /* I =  1: 20 */
(PID.TID 0000.0001)     ;
(PID.TID 0000.0001) rAw =  /* rAw(1,:,1,:) ( m - cartesian, degrees - spherical ) */
(PID.TID 0000.0001)                 3.372804882275624E+10,      /* J =  1 */
(PID.TID 0000.0001)                 3.244522605358470E+10,      /* J =  2 */
(PID.TID 0000.0001)                 3.112287377427101E+10,      /* J =  3 */
(PID.TID 0000.0001)                 2.976260306737436E+10,      /* J =  4 */
(PID.TID 0000.0001)                 2.836607121321785E+10,      /* J =  5 */
(PID.TID 0000.0001)                 2.693497967074625E+10,      /* J =  6 */
(PID.TID 0000.0001)                 2.547107200456124E+10,      /* J =  7 */
(PID.TID 0000.0001)                 2.397613176065687E+10,      /* J =  8 */
(PID.TID 0000.0001)                 2.245198029344195E+10,      /* J =  9 */
(PID.TID 0000.0001)                 2.090047454670190E+10,      /* J = 10 */
(PID.TID 0000.0001)                 1.932350479119800E+10,      /* J = 11 */
(PID.TID 0000.0001)                 1.772299232166364E+10,      /* J = 12 */
(PID.TID 0000.0001)                 1.610088711600325E+10,      /* J = 13 */
(PID.TID 0000.0001)                 1.445916545954342E+10,      /* J = 14 */
(PID.TID 0000.0001)                 1.279982753723484E+10,      /* J = 15 */
(PID.TID 0000.0001)                 1.112489499673436E+10       /* J = 16 */
(PID.TID 0000.0001)     ;
(PID.TID 0000.0001) rAs =  /* rAs(:,1,:,1) ( m - cartesian, degrees - spherical ) */
(PID.TID 0000.0001)    20 @  3.435414629417917E+10              /* I =  1: 20 */
(PID.TID 0000.0001)     ;
(PID.TID 0000.0001) rAs =  /* rAs(1,:,1,:) ( m - cartesian, degrees - spherical ) */
(PID.TID 0000.0001)                 3.435414629417917E+10,      /* J =  1 */
(PID.TID 0000.0001)                 3.309167746093085E+10,      /* J =  2 */
(PID.TID 0000.0001)                 3.178889151607876E+10,      /* J =  3 */
(PID.TID 0000.0001)                 3.044737570361747E+10,      /* J =  4 */
(PID.TID 0000.0001)                 2.906876445392021E+10,      /* J =  5 */
(PID.TID 0000.0001)                 2.765473739243565E+10,      /* J =  6 */
(PID.TID 0000.0001)                 2.620701729332414E+10,      /* J =  7 */
(PID.TID 0000.0001)                 2.472736798052211E+10,      /* J =  8 */
(PID.TID 0000.0001)                 2.321759217879517E+10,      /* J =  9 */
(PID.TID 0000.0001)                 2.167952931739412E+10,      /* J = 10 */
(PID.TID 0000.0001)                 2.011505328899531E+10,      /* J = 11 */
(PID.TID 0000.0001)                 1.852607016665018E+10,      /* J = 12 */
(PID.TID 0000.0001)                 1.691451588152956E+10,      /* J = 13 */
(PID.TID 0000.0001)                 1.528235386428861E+10,      /* J = 14 */
(PID.TID 0000.0001)                 1.363157265293018E+10,      /* J = 15 */
(PID.TID 0000.0001)                 1.196418347007695E+10       /* J = 16 */
(PID.TID 0000.0001)     ;
(PID.TID 0000.0001) 
(PID.TID 0000.0001)  MDSREADFIELD_GL: opening file: hFacC.001.001.data
(PID.TID 0000.0001)  MDSREADFIELD_GL: opening file: xx_theta.0000000000.001.001.data
(PID.TID 0000.0001)  MDSREADFIELD_GL: opening file: hFacC.001.001.data
(PID.TID 0000.0001)  MDSREADFIELD_GL: opening file: xx_salt.0000000000.001.001.data
(PID.TID 0000.0001)  MDSREADFIELD_GL: opening file: watemp.001.001.data
(PID.TID 0000.0001)  MDSREADFIELD_GL: opening file: hFacC.001.001.data
(PID.TID 0000.0001)  MDSREADFIELD_GL: opening file: xx_atemp.0000000000.001.001.data
(PID.TID 0000.0001)  MDSREADFIELD_GL: opening file: xx_atemp.0000000000.001.001.data
(PID.TID 0000.0001)  MDSREADFIELD_GL: opening file: waqh.001.001.data
(PID.TID 0000.0001)  MDSREADFIELD_GL: opening file: hFacC.001.001.data
(PID.TID 0000.0001)  MDSREADFIELD_GL: opening file: xx_aqh.0000000000.001.001.data
(PID.TID 0000.0001)  MDSREADFIELD_GL: opening file: xx_aqh.0000000000.001.001.data
(PID.TID 0000.0001)  MDSREADFIELD_GL: opening file: wuwind.001.001.data
(PID.TID 0000.0001)  MDSREADFIELD_GL: opening file: maskW.001.001.data
(PID.TID 0000.0001)  MDSREADFIELD_GL: opening file: xx_uwind.0000000000.001.001.data
(PID.TID 0000.0001)  MDSREADFIELD_GL: opening file: xx_uwind.0000000000.001.001.data
(PID.TID 0000.0001)  MDSREADFIELD_GL: opening file: wvwind.001.001.data
(PID.TID 0000.0001)  MDSREADFIELD_GL: opening file: maskS.001.001.data
(PID.TID 0000.0001)  MDSREADFIELD_GL: opening file: xx_vwind.0000000000.001.001.data
(PID.TID 0000.0001)  MDSREADFIELD_GL: opening file: xx_vwind.0000000000.001.001.data
(PID.TID 0000.0001) %MON fCori_max                    =   1.4171638136144E-04
(PID.TID 0000.0001) %MON fCori_min                    =   1.0637108408252E-04
(PID.TID 0000.0001) %MON fCori_mean                   =   1.2676338344768E-04
(PID.TID 0000.0001) %MON fCori_sd                     =   1.1001401444773E-05
(PID.TID 0000.0001) %MON fCoriG_max                   =   1.4112379284621E-04
(PID.TID 0000.0001) %MON fCoriG_min                   =   1.0462373297123E-04
(PID.TID 0000.0001) %MON fCoriG_mean                  =   1.2556776212280E-04
(PID.TID 0000.0001) %MON fCoriG_sd                    =   1.1352720951562E-05
(PID.TID 0000.0001) // CG2D normalisation factor =          0.1609493984093919507084164E-03
(PID.TID 0000.0001) 
(PID.TID 0000.0001)  MDSREADFIELD: opening global file: LevCli_temp.labsea
(PID.TID 0000.0001) // =======================================================
(PID.TID 0000.0001) // Field Initial Temperature at iteration          1
(PID.TID 0000.0001) // CMIN =          9.205863475799561E-01
(PID.TID 0000.0001) // CMAX =          1.333307647705078E+01
(PID.TID 0000.0001) // CINT =          4.597218566470676E-01
(PID.TID 0000.0001) // SYMBOLS (CMIN->CMAX): -abcdefghijklmnopqrstuvwxyz+
(PID.TID 0000.0001) //                  0.0: .
(PID.TID 0000.0001) // RANGE I (Lo:Hi:Step):(   1:  20:   1)
(PID.TID 0000.0001) // RANGE J (Lo:Hi:Step):(  16:   1:  -1)
(PID.TID 0000.0001) // RANGE K (Lo:Hi:Step):(   1:   1:   1)
(PID.TID 0000.0001) // =======================================================
(PID.TID 0000.0001) K =   1
(PID.TID 0000.0001)                I=10      I=20
(PID.TID 0000.0001) |--J--|123456789|123456789|
(PID.TID 0000.0001)     16 .----...............
(PID.TID 0000.0001)     15 aabaaaaaaaa.........
(PID.TID 0000.0001)     14 .ccccccbbbbc........
(PID.TID 0000.0001)     13 ....dddddddd........
(PID.TID 0000.0001)     12 ......dcdddddd......
(PID.TID 0000.0001)     11 ........cccdd.......
(PID.TID 0000.0001)     10 .......bbcdddd......
(PID.TID 0000.0001)      9 .......cdeeffff....j
(PID.TID 0000.0001)      8 .....ccdefgghhggh..k
(PID.TID 0000.0001)      7 ......d.fghiiiiiijkl
(PID.TID 0000.0001)      6 .........ghhijjjkklm
(PID.TID 0000.0001)      5 ..........hhhijklmnn
(PID.TID 0000.0001)      4 ............ghikmopq
(PID.TID 0000.0001)      3 ..........k.hhiknqsu
(PID.TID 0000.0001)      2 .......oonm..ijknqux
(PID.TID 0000.0001)      1 ........qponlkklosw+
(PID.TID 0000.0001) // =======================================================
(PID.TID 0000.0001) // END OF FIELD                                          =
(PID.TID 0000.0001) // =======================================================
(PID.TID 0000.0001) 
(PID.TID 0000.0001)  MDSREADFIELD: opening global file: LevCli_salt.labsea
(PID.TID 0000.0001) // =======================================================
(PID.TID 0000.0001) // Field Initial Salinity at iteration          1
(PID.TID 0000.0001) // CMIN =          3.012869834899902E+01
(PID.TID 0000.0001) // CMAX =          3.487366104125977E+01
(PID.TID 0000.0001) // CINT =          1.757393589726201E-01
(PID.TID 0000.0001) // SYMBOLS (CMIN->CMAX): -abcdefghijklmnopqrstuvwxyz+
(PID.TID 0000.0001) //                  0.0: .
(PID.TID 0000.0001) // RANGE I (Lo:Hi:Step):(   1:  20:   1)
(PID.TID 0000.0001) // RANGE J (Lo:Hi:Step):(  16:   1:  -1)
(PID.TID 0000.0001) // RANGE K (Lo:Hi:Step):(   1:   1:   1)
(PID.TID 0000.0001) // =======================================================
(PID.TID 0000.0001) K =   1
(PID.TID 0000.0001)                I=10      I=20
(PID.TID 0000.0001) |--J--|123456789|123456789|
(PID.TID 0000.0001)     16 .nnos...............
(PID.TID 0000.0001)     15 lnoppppppol.........
(PID.TID 0000.0001)     14 .nponmllllmn........
(PID.TID 0000.0001)     13 ....ljhijkmo........
(PID.TID 0000.0001)     12 ......ghjlmors......
(PID.TID 0000.0001)     11 ........jmnpr.......
(PID.TID 0000.0001)     10 .......jlnpqrq......
(PID.TID 0000.0001)      9 .......noqsttts....w
(PID.TID 0000.0001)      8 .....jlnpsuvwwutu..x
(PID.TID 0000.0001)      7 ......j.rruwxyxxwxxy
(PID.TID 0000.0001)      6 .........ppruxyyzzzz
(PID.TID 0000.0001)      5 ..........ijoswyzzzz
(PID.TID 0000.0001)      4 ............iotwyzzz
(PID.TID 0000.0001)      3 ..........g.imquwyzz
(PID.TID 0000.0001)      2 .......-bef..knqtvxz
(PID.TID 0000.0001)      1 ........-cegijlosvy+
(PID.TID 0000.0001) // =======================================================
(PID.TID 0000.0001) // END OF FIELD                                          =
(PID.TID 0000.0001) // =======================================================
(PID.TID 0000.0001) 
(PID.TID 0000.0001)  MDSREADFIELD: opening file: xx_theta.0000000000.001.001.data
(PID.TID 0000.0001)  MDSREADFIELD: opening file: xx_salt.0000000000.001.001.data
(PID.TID 0000.0001)  MDSREADFIELD: opening file: xx_atemp.0000000000.001.001.data
(PID.TID 0000.0001)  MDSREADFIELD: opening file: xx_atemp.0000000000.001.001.data
(PID.TID 0000.0001)  MDSREADFIELD: opening file: xx_aqh.0000000000.001.001.data
(PID.TID 0000.0001)  MDSREADFIELD: opening file: xx_aqh.0000000000.001.001.data
(PID.TID 0000.0001)  MDSREADFIELD: opening file: xx_uwind.0000000000.001.001.data
(PID.TID 0000.0001)  MDSREADFIELD: opening file: xx_uwind.0000000000.001.001.data
(PID.TID 0000.0001)  MDSREADFIELD: opening file: xx_vwind.0000000000.001.001.data
(PID.TID 0000.0001)  MDSREADFIELD: opening file: xx_vwind.0000000000.001.001.data
(PID.TID 0000.0001)  MDS_WRITE_RL_VEC: irec =  00000001   00015456
(PID.TID 0000.0001)  MDS_WRITE_RL_VEC: irec =  00000001   00015456
(PID.TID 0000.0001)  MDS_WRITE_RL_VEC: irec =  00000001   00015456
(PID.TID 0000.0001)  MDS_WRITE_RL_VEC: irec =  00000001   00015456
(PID.TID 0000.0001)  MDS_WRITE_RL_VEC: irec =  00000001   00015456
(PID.TID 0000.0001)  MDS_WRITE_RL_VEC: irec =  00000001   00015456
(PID.TID 0000.0001)  MDS_WRITE_RL_VEC: irec =  00000001   00015456
(PID.TID 0000.0001)  MDS_WRITE_RL_VEC: irec =  00000001   00015456
(PID.TID 0000.0001)  MDS_WRITE_RL_VEC: irec =  00000001   00015456
(PID.TID 0000.0001)  MDS_WRITE_RL_VEC: irec =  00000001   00000672
(PID.TID 0000.0001)  MDS_WRITE_RL_VEC: irec =  00000001   00015456
(PID.TID 0000.0001)  MDS_WRITE_RL_VEC: irec =  00000001   00015456
(PID.TID 0000.0001)  MDS_WRITE_RL_VEC: irec =  00000001   00015456
(PID.TID 0000.0001)  MDS_WRITE_RL_VEC: irec =  00000001   00015456
(PID.TID 0000.0001)  MDS_WRITE_RL_VEC: irec =  00000001   00000672
(PID.TID 0000.0001)  MDS_WRITE_RL_VEC: irec =  00000001   00015456
(PID.TID 0000.0001)  MDS_WRITE_RL_VEC: irec =  00000001   00015456
(PID.TID 0000.0001)  MDS_WRITE_RL_VEC: irec =  00000001   00015456
(PID.TID 0000.0001)  MDS_WRITE_RL_VEC: irec =  00000001   00015456
(PID.TID 0000.0001)  MDS_WRITE_RL_VEC: irec =  00000001   00000672
(PID.TID 0000.0001)  MDS_WRITE_RL_VEC: irec =  00000001   00000672
(PID.TID 0000.0001)  MDS_WRITE_RL_VEC: irec =  00000001   00000672
(PID.TID 0000.0001)  MDS_WRITE_RL_VEC: irec =  00000001   00000672
(PID.TID 0000.0001)  MDS_WRITE_RL_VEC: irec =  00000001   00000672
(PID.TID 0000.0001)  MDS_WRITE_RL_VEC: irec =  00000001   00000672
(PID.TID 0000.0001)  MDS_WRITE_RL_VEC: irec =  00000001   00000672
(PID.TID 0000.0001)  MDS_WRITE_RL_VEC: irec =  00000001   00000672
(PID.TID 0000.0001)  MDS_WRITE_RL_VEC: irec =  00000001   00000672
(PID.TID 0000.0001)  MDS_WRITE_RL_VEC: irec =  00000001   00000672
(PID.TID 0000.0001)  MDS_WRITE_RL_VEC: irec =  00000001   00000672
(PID.TID 0000.0001)  MDS_WRITE_RL_VEC: irec =  00000001   00000672
(PID.TID 0000.0001)  MDS_WRITE_RL_VEC: irec =  00000001   00000672
(PID.TID 0000.0001)  MDS_WRITE_RL_VEC: irec =  00000001   00000672
(PID.TID 0000.0001)  MDS_WRITE_RL_VEC: irec =  00000001   00000672
(PID.TID 0000.0001)  MDS_WRITE_RL_VEC: irec =  00000001   00000672
(PID.TID 0000.0001)  MDS_WRITE_RL_VEC: irec =  00000001   00000672
(PID.TID 0000.0001) 
(PID.TID 0000.0001)  exf_GetFFieldsRec: first, changed, fac:   T   F   0.50000000E+00
(PID.TID 0000.0001)  exf_GetFFieldsRec:      count0, count1:   1   2
(PID.TID 0000.0001) 
(PID.TID 0000.0001)  MDSREADFIELD: opening global file: u10m.labsea79
(PID.TID 0000.0001)  MDSREADFIELD: opening global file: u10m.labsea79
(PID.TID 0000.0001) 
(PID.TID 0000.0001)  exf_GetFFieldsRec: first, changed, fac:   T   F   0.50000000E+00
(PID.TID 0000.0001)  exf_GetFFieldsRec:      count0, count1:   1   2
(PID.TID 0000.0001) 
(PID.TID 0000.0001)  MDSREADFIELD: opening global file: v10m.labsea79
(PID.TID 0000.0001)  MDSREADFIELD: opening global file: v10m.labsea79
(PID.TID 0000.0001)  MDSREADFIELD: opening file: xx_uwind.0000000000.001.001.data
(PID.TID 0000.0001)  MDSREADFIELD: opening file: xx_uwind.0000000000.001.001.data
(PID.TID 0000.0001)  MDSREADFIELD: opening file: xx_vwind.0000000000.001.001.data
(PID.TID 0000.0001)  MDSREADFIELD: opening file: xx_vwind.0000000000.001.001.data
(PID.TID 0000.0001) 
(PID.TID 0000.0001)  exf_GetFFieldsRec: first, changed, fac:   T   F   0.50000000E+00
(PID.TID 0000.0001)  exf_GetFFieldsRec:      count0, count1:   1   2
(PID.TID 0000.0001) 
(PID.TID 0000.0001)  MDSREADFIELD: opening global file: tair.labsea1979
(PID.TID 0000.0001)  MDSREADFIELD: opening global file: tair.labsea1979
(PID.TID 0000.0001) 
(PID.TID 0000.0001)  exf_GetFFieldsRec: first, changed, fac:   T   F   0.50000000E+00
(PID.TID 0000.0001)  exf_GetFFieldsRec:      count0, count1:   1   2
(PID.TID 0000.0001) 
(PID.TID 0000.0001)  MDSREADFIELD: opening global file: qa.labsea1979
(PID.TID 0000.0001)  MDSREADFIELD: opening global file: qa.labsea1979
(PID.TID 0000.0001) 
(PID.TID 0000.0001)  exf_GetFFieldsRec: first, changed, fac:   T   F   0.50000000E+00
(PID.TID 0000.0001)  exf_GetFFieldsRec:      count0, count1:   1   2
(PID.TID 0000.0001) 
(PID.TID 0000.0001)  MDSREADFIELD: opening global file: prate.labsea1979
(PID.TID 0000.0001)  MDSREADFIELD: opening global file: prate.labsea1979
(PID.TID 0000.0001)  MDSREADFIELD: opening file: xx_atemp.0000000000.001.001.data
(PID.TID 0000.0001)  MDSREADFIELD: opening file: xx_atemp.0000000000.001.001.data
(PID.TID 0000.0001)  MDSREADFIELD: opening file: xx_aqh.0000000000.001.001.data
(PID.TID 0000.0001)  MDSREADFIELD: opening file: xx_aqh.0000000000.001.001.data
(PID.TID 0000.0001) 
(PID.TID 0000.0001)  exf_GetFFieldsRec: first, changed, fac:   T   F   0.50000000E+00
(PID.TID 0000.0001)  exf_GetFFieldsRec:      count0, count1:   1   2
(PID.TID 0000.0001) 
(PID.TID 0000.0001)  MDSREADFIELD: opening global file: fsh.labsea1979
(PID.TID 0000.0001)  MDSREADFIELD: opening global file: fsh.labsea1979
(PID.TID 0000.0001) 
(PID.TID 0000.0001)  exf_GetFFieldsRec: first, changed, fac:   T   F   0.50000000E+00
(PID.TID 0000.0001)  exf_GetFFieldsRec:      count0, count1:   1   2
(PID.TID 0000.0001) 
(PID.TID 0000.0001)  MDSREADFIELD: opening global file: flo.labsea1979
(PID.TID 0000.0001)  MDSREADFIELD: opening global file: flo.labsea1979
 cg2d: Sum(rhs),rhsMax =   1.95590071916385E-16  1.00807802167630E+00
(PID.TID 0000.0001)                    cg2d_init_res =    1.61521300655486E+00
(PID.TID 0000.0001)                       cg2d_iters =    47
(PID.TID 0000.0001)                         cg2d_res =    5.70138941994743E-14
(PID.TID 0000.0001) 
(PID.TID 0000.0001)  exf_GetFFieldsRec: first, changed, fac:   F   F   0.49863388E+00
(PID.TID 0000.0001)  exf_GetFFieldsRec:      count0, count1:   1   2
(PID.TID 0000.0001) 
(PID.TID 0000.0001) 
(PID.TID 0000.0001)  exf_GetFFieldsRec: first, changed, fac:   F   F   0.49863388E+00
(PID.TID 0000.0001)  exf_GetFFieldsRec:      count0, count1:   1   2
(PID.TID 0000.0001) 
(PID.TID 0000.0001)  MDSREADFIELD: opening file: xx_uwind.0000000000.001.001.data
(PID.TID 0000.0001)  MDSREADFIELD: opening file: xx_uwind.0000000000.001.001.data
(PID.TID 0000.0001)  MDSREADFIELD: opening file: xx_vwind.0000000000.001.001.data
(PID.TID 0000.0001)  MDSREADFIELD: opening file: xx_vwind.0000000000.001.001.data
(PID.TID 0000.0001) 
(PID.TID 0000.0001)  exf_GetFFieldsRec: first, changed, fac:   F   F   0.49863388E+00
(PID.TID 0000.0001)  exf_GetFFieldsRec:      count0, count1:   1   2
(PID.TID 0000.0001) 
(PID.TID 0000.0001) 
(PID.TID 0000.0001)  exf_GetFFieldsRec: first, changed, fac:   F   F   0.49863388E+00
(PID.TID 0000.0001)  exf_GetFFieldsRec:      count0, count1:   1   2
(PID.TID 0000.0001) 
(PID.TID 0000.0001) 
(PID.TID 0000.0001)  exf_GetFFieldsRec: first, changed, fac:   F   F   0.49863388E+00
(PID.TID 0000.0001)  exf_GetFFieldsRec:      count0, count1:   1   2
(PID.TID 0000.0001) 
(PID.TID 0000.0001)  MDSREADFIELD: opening file: xx_atemp.0000000000.001.001.data
(PID.TID 0000.0001)  MDSREADFIELD: opening file: xx_atemp.0000000000.001.001.data
(PID.TID 0000.0001)  MDSREADFIELD: opening file: xx_aqh.0000000000.001.001.data
(PID.TID 0000.0001)  MDSREADFIELD: opening file: xx_aqh.0000000000.001.001.data
(PID.TID 0000.0001) 
(PID.TID 0000.0001)  exf_GetFFieldsRec: first, changed, fac:   F   F   0.49863388E+00
(PID.TID 0000.0001)  exf_GetFFieldsRec:      count0, count1:   1   2
(PID.TID 0000.0001) 
(PID.TID 0000.0001) 
(PID.TID 0000.0001)  exf_GetFFieldsRec: first, changed, fac:   F   F   0.49863388E+00
(PID.TID 0000.0001)  exf_GetFFieldsRec:      count0, count1:   1   2
(PID.TID 0000.0001) 
 cg2d: Sum(rhs),rhsMax =   7.37474317724640E-16  1.23585471329616E+00
(PID.TID 0000.0001)                    cg2d_init_res =    3.48544561450945E-01
(PID.TID 0000.0001)                       cg2d_iters =    45
(PID.TID 0000.0001)                         cg2d_res =    6.49477568692734E-14
(PID.TID 0000.0001) 
(PID.TID 0000.0001)  exf_GetFFieldsRec: first, changed, fac:   F   F   0.49726776E+00
(PID.TID 0000.0001)  exf_GetFFieldsRec:      count0, count1:   1   2
(PID.TID 0000.0001) 
(PID.TID 0000.0001) 
(PID.TID 0000.0001)  exf_GetFFieldsRec: first, changed, fac:   F   F   0.49726776E+00
(PID.TID 0000.0001)  exf_GetFFieldsRec:      count0, count1:   1   2
(PID.TID 0000.0001) 
(PID.TID 0000.0001)  MDSREADFIELD: opening file: xx_uwind.0000000000.001.001.data
(PID.TID 0000.0001)  MDSREADFIELD: opening file: xx_uwind.0000000000.001.001.data
(PID.TID 0000.0001)  MDSREADFIELD: opening file: xx_vwind.0000000000.001.001.data
(PID.TID 0000.0001)  MDSREADFIELD: opening file: xx_vwind.0000000000.001.001.data
(PID.TID 0000.0001) 
(PID.TID 0000.0001)  exf_GetFFieldsRec: first, changed, fac:   F   F   0.49726776E+00
(PID.TID 0000.0001)  exf_GetFFieldsRec:      count0, count1:   1   2
(PID.TID 0000.0001) 
(PID.TID 0000.0001) 
(PID.TID 0000.0001)  exf_GetFFieldsRec: first, changed, fac:   F   F   0.49726776E+00
(PID.TID 0000.0001)  exf_GetFFieldsRec:      count0, count1:   1   2
(PID.TID 0000.0001) 
(PID.TID 0000.0001) 
(PID.TID 0000.0001)  exf_GetFFieldsRec: first, changed, fac:   F   F   0.49726776E+00
(PID.TID 0000.0001)  exf_GetFFieldsRec:      count0, count1:   1   2
(PID.TID 0000.0001) 
(PID.TID 0000.0001)  MDSREADFIELD: opening file: xx_atemp.0000000000.001.001.data
(PID.TID 0000.0001)  MDSREADFIELD: opening file: xx_atemp.0000000000.001.001.data
(PID.TID 0000.0001)  MDSREADFIELD: opening file: xx_aqh.0000000000.001.001.data
(PID.TID 0000.0001)  MDSREADFIELD: opening file: xx_aqh.0000000000.001.001.data
(PID.TID 0000.0001) 
(PID.TID 0000.0001)  exf_GetFFieldsRec: first, changed, fac:   F   F   0.49726776E+00
(PID.TID 0000.0001)  exf_GetFFieldsRec:      count0, count1:   1   2
(PID.TID 0000.0001) 
(PID.TID 0000.0001) 
(PID.TID 0000.0001)  exf_GetFFieldsRec: first, changed, fac:   F   F   0.49726776E+00
(PID.TID 0000.0001)  exf_GetFFieldsRec:      count0, count1:   1   2
(PID.TID 0000.0001) 
 cg2d: Sum(rhs),rhsMax =   6.20553955443803E-15  1.25438452343302E+00
(PID.TID 0000.0001)                    cg2d_init_res =    2.36078257971889E-01
(PID.TID 0000.0001)                       cg2d_iters =    45
(PID.TID 0000.0001)                         cg2d_res =    6.62546240702124E-14
(PID.TID 0000.0001) 
(PID.TID 0000.0001)  exf_GetFFieldsRec: first, changed, fac:   F   F   0.49590164E+00
(PID.TID 0000.0001)  exf_GetFFieldsRec:      count0, count1:   1   2
(PID.TID 0000.0001) 
(PID.TID 0000.0001) 
(PID.TID 0000.0001)  exf_GetFFieldsRec: first, changed, fac:   F   F   0.49590164E+00
(PID.TID 0000.0001)  exf_GetFFieldsRec:      count0, count1:   1   2
(PID.TID 0000.0001) 
(PID.TID 0000.0001)  MDSREADFIELD: opening file: xx_uwind.0000000000.001.001.data
(PID.TID 0000.0001)  MDSREADFIELD: opening file: xx_uwind.0000000000.001.001.data
(PID.TID 0000.0001)  MDSREADFIELD: opening file: xx_vwind.0000000000.001.001.data
(PID.TID 0000.0001)  MDSREADFIELD: opening file: xx_vwind.0000000000.001.001.data
(PID.TID 0000.0001) 
(PID.TID 0000.0001)  exf_GetFFieldsRec: first, changed, fac:   F   F   0.49590164E+00
(PID.TID 0000.0001)  exf_GetFFieldsRec:      count0, count1:   1   2
(PID.TID 0000.0001) 
(PID.TID 0000.0001) 
(PID.TID 0000.0001)  exf_GetFFieldsRec: first, changed, fac:   F   F   0.49590164E+00
(PID.TID 0000.0001)  exf_GetFFieldsRec:      count0, count1:   1   2
(PID.TID 0000.0001) 
(PID.TID 0000.0001) 
(PID.TID 0000.0001)  exf_GetFFieldsRec: first, changed, fac:   F   F   0.49590164E+00
(PID.TID 0000.0001)  exf_GetFFieldsRec:      count0, count1:   1   2
(PID.TID 0000.0001) 
(PID.TID 0000.0001)  MDSREADFIELD: opening file: xx_atemp.0000000000.001.001.data
(PID.TID 0000.0001)  MDSREADFIELD: opening file: xx_atemp.0000000000.001.001.data
(PID.TID 0000.0001)  MDSREADFIELD: opening file: xx_aqh.0000000000.001.001.data
(PID.TID 0000.0001)  MDSREADFIELD: opening file: xx_aqh.0000000000.001.001.data
(PID.TID 0000.0001) 
(PID.TID 0000.0001)  exf_GetFFieldsRec: first, changed, fac:   F   F   0.49590164E+00
(PID.TID 0000.0001)  exf_GetFFieldsRec:      count0, count1:   1   2
(PID.TID 0000.0001) 
(PID.TID 0000.0001) 
(PID.TID 0000.0001)  exf_GetFFieldsRec: first, changed, fac:   F   F   0.49590164E+00
(PID.TID 0000.0001)  exf_GetFFieldsRec:      count0, count1:   1   2
(PID.TID 0000.0001) 
 cg2d: Sum(rhs),rhsMax =   3.20620266447413E-15  1.25494322187447E+00
(PID.TID 0000.0001)                    cg2d_init_res =    1.82553144014713E-01
(PID.TID 0000.0001)                       cg2d_iters =    45
(PID.TID 0000.0001)                         cg2d_res =    5.12415163303431E-14
(PID.TID 0000.0001)  MDSREADFIELD: opening file: tbar.0000000000.001.001.data
(PID.TID 0000.0001)  MDSREADFIELD: opening global file: labsea_SST_fields
(PID.TID 0000.0001)  MDSREADFIELD: opening file: tbar.0000000000.001.001.data
(PID.TID 0000.0001)  MDSREADFIELD: opening global file: labsea_Lev.ptmp
(PID.TID 0000.0001)  MDSREADFIELD: opening file: sbar.0000000000.001.001.data
(PID.TID 0000.0001)  MDSREADFIELD: opening global file: labsea_Lev.salt
(PID.TID 0000.0001)  MDSREADFIELD: opening file: psbar.0000000000.001.001.data
(PID.TID 0000.0001)  MDSREADFIELD: opening global file: labsea_TP_mean

  cost_ssh: offset_sum =   71.

(PID.TID 0000.0001)  MDSREADFIELD: opening file: psbar.0000000000.001.001.data
(PID.TID 0000.0001)  MDSREADFIELD: opening global file: labsea_TP_fields
(PID.TID 0000.0001)  MDSREADFIELD: opening global file: labsea_ERS_fields
(PID.TID 0000.0001)  MDSREADFIELD: opening file: tbar.0000000000.001.001.data
(PID.TID 0000.0001)  MDSREADFIELD: opening global file: labsea_SST_fields
  --> objf_temp(bi,bj)    =  913.322487
  --> objf_salt(bi,bj)    =  293.144573
  --> objf_temp0(bi,bj)   =  0.
  --> objf_salt0(bi,bj)   =  0.
  --> objf_sst(bi,bj)     =  201.662552
  --> objf_sss(bi,bj)     =  0.
  --> objf_h(bi,bj)       =  0.
  --> objf_hmean          =  0.0266992949
  --> objf_tauu(bi,bj)    =  0.
  --> objf_tauum(bi,bj)   =  0.
  --> objf_tauv(bi,bj)    =  0.
  --> objf_tauvm(bi,bj)   =  0.
  --> objf_hflux(bi,bj)   =  0.
  --> objf_hflux(bi,bj)   =  0.
  --> objf_hflux(bi,bj)   =  0.
  --> objf_sflux(bi,bj)   =  0.
  --> objf_sflux(bi,bj)   =  0.
  --> objf_sflux(bi,bj)   =  0.
  --> objf_atl(bi,bj)     =  0.
  --> objf_ctdt(bi,bj)    =  0.
  --> objf_ctds(bi,bj)    =  0.
  --> objf_xbt(bi,bj)     =  0.
  --> objf_argot(bi,bj)   =  0.
  --> objf_argos(bi,bj)   =  0.
  --> objf_drift(bi,bj)   =  0.
  --> objf_tdrift(bi,bj)  =  0.
  --> objf_sdrift(bi,bj)  =  0.
  --> objf_wdrift(bi,bj)  =  0.
  --> objf_scatx(bi,bj)   =  0.
  --> objf_scaty(bi,bj)   =  0.
  --> objf_scatxm(bi,bj)  =  0.
  --> objf_scatym(bi,bj)  =  0.
  --> objf_uwind(bi,bj)   =  0.
  --> objf_vwind(bi,bj)   =  0.
  --> objf_atemp(bi,bj)   =  0.
  --> objf_aqh(bi,bj)     =  0.
  --> objf_obcsn(bi,bj)   =  0.
  --> objf_obcss(bi,bj)   =  0.
  --> objf_obcsw(bi,bj)   =  0.
  --> objf_obcse(bi,bj)   =  0.
  --> objf_hmean           =  0.0266992949
  --> fc               =  1408.15631
(PID.TID 0000.0001) %MON fCori_max                    =   1.4171638136144E-04
(PID.TID 0000.0001) %MON fCori_min                    =   1.0637108408252E-04
(PID.TID 0000.0001) %MON fCori_mean                   =   1.2676338344768E-04
(PID.TID 0000.0001) %MON fCori_sd                     =   1.1001401444773E-05
(PID.TID 0000.0001) %MON fCoriG_max                   =   1.4112379284621E-04
(PID.TID 0000.0001) %MON fCoriG_min                   =   1.0462373297123E-04
(PID.TID 0000.0001) %MON fCoriG_mean                  =   1.2556776212280E-04
(PID.TID 0000.0001) %MON fCoriG_sd                    =   1.1352720951562E-05
(PID.TID 0000.0001) // CG2D normalisation factor =          0.1609493984093919507084164E-03
(PID.TID 0000.0001) 
(PID.TID 0000.0001)  MDSREADFIELD: opening global file: LevCli_temp.labsea
(PID.TID 0000.0001) // =======================================================
(PID.TID 0000.0001) // Field Initial Temperature at iteration          1
(PID.TID 0000.0001) // CMIN =          9.205863475799561E-01
(PID.TID 0000.0001) // CMAX =          1.333307647705078E+01
(PID.TID 0000.0001) // CINT =          4.597218566470676E-01
(PID.TID 0000.0001) // SYMBOLS (CMIN->CMAX): -abcdefghijklmnopqrstuvwxyz+
(PID.TID 0000.0001) //                  0.0: .
(PID.TID 0000.0001) // RANGE I (Lo:Hi:Step):(   1:  20:   1)
(PID.TID 0000.0001) // RANGE J (Lo:Hi:Step):(  16:   1:  -1)
(PID.TID 0000.0001) // RANGE K (Lo:Hi:Step):(   1:   1:   1)
(PID.TID 0000.0001) // =======================================================
(PID.TID 0000.0001) K =   1
(PID.TID 0000.0001)                I=10      I=20
(PID.TID 0000.0001) |--J--|123456789|123456789|
(PID.TID 0000.0001)     16 .----...............
(PID.TID 0000.0001)     15 aabaaaaaaaa.........
(PID.TID 0000.0001)     14 .ccccccbbbbc........
(PID.TID 0000.0001)     13 ....dddddddd........
(PID.TID 0000.0001)     12 ......dcdddddd......
(PID.TID 0000.0001)     11 ........cccdd.......
(PID.TID 0000.0001)     10 .......bbcdddd......
(PID.TID 0000.0001)      9 .......cdeeffff....j
(PID.TID 0000.0001)      8 .....ccdefgghhggh..k
(PID.TID 0000.0001)      7 ......d.fghiiiiiijkl
(PID.TID 0000.0001)      6 .........ghhijjjkklm
(PID.TID 0000.0001)      5 ..........hhhijklmnn
(PID.TID 0000.0001)      4 ............ghikmopq
(PID.TID 0000.0001)      3 ..........k.hhiknqsu
(PID.TID 0000.0001)      2 .......oonm..ijknqux
(PID.TID 0000.0001)      1 ........qponlkklosw+
(PID.TID 0000.0001) // =======================================================
(PID.TID 0000.0001) // END OF FIELD                                          =
(PID.TID 0000.0001) // =======================================================
(PID.TID 0000.0001) 
(PID.TID 0000.0001)  MDSREADFIELD: opening global file: LevCli_salt.labsea
(PID.TID 0000.0001) // =======================================================
(PID.TID 0000.0001) // Field Initial Salinity at iteration          1
(PID.TID 0000.0001) // CMIN =          3.012869834899902E+01
(PID.TID 0000.0001) // CMAX =          3.487366104125977E+01
(PID.TID 0000.0001) // CINT =          1.757393589726201E-01
(PID.TID 0000.0001) // SYMBOLS (CMIN->CMAX): -abcdefghijklmnopqrstuvwxyz+
(PID.TID 0000.0001) //                  0.0: .
(PID.TID 0000.0001) // RANGE I (Lo:Hi:Step):(   1:  20:   1)
(PID.TID 0000.0001) // RANGE J (Lo:Hi:Step):(  16:   1:  -1)
(PID.TID 0000.0001) // RANGE K (Lo:Hi:Step):(   1:   1:   1)
(PID.TID 0000.0001) // =======================================================
(PID.TID 0000.0001) K =   1
(PID.TID 0000.0001)                I=10      I=20
(PID.TID 0000.0001) |--J--|123456789|123456789|
(PID.TID 0000.0001)     16 .nnos...............
(PID.TID 0000.0001)     15 lnoppppppol.........
(PID.TID 0000.0001)     14 .nponmllllmn........
(PID.TID 0000.0001)     13 ....ljhijkmo........
(PID.TID 0000.0001)     12 ......ghjlmors......
(PID.TID 0000.0001)     11 ........jmnpr.......
(PID.TID 0000.0001)     10 .......jlnpqrq......
(PID.TID 0000.0001)      9 .......noqsttts....w
(PID.TID 0000.0001)      8 .....jlnpsuvwwutu..x
(PID.TID 0000.0001)      7 ......j.rruwxyxxwxxy
(PID.TID 0000.0001)      6 .........ppruxyyzzzz
(PID.TID 0000.0001)      5 ..........ijoswyzzzz
(PID.TID 0000.0001)      4 ............iotwyzzz
(PID.TID 0000.0001)      3 ..........g.imquwyzz
(PID.TID 0000.0001)      2 .......-bef..knqtvxz
(PID.TID 0000.0001)      1 ........-cegijlosvy+
(PID.TID 0000.0001) // =======================================================
(PID.TID 0000.0001) // END OF FIELD                                          =
(PID.TID 0000.0001) // =======================================================
(PID.TID 0000.0001) 
(PID.TID 0000.0001)  MDSREADFIELD: opening file: xx_theta.0000000000.001.001.data
(PID.TID 0000.0001)  MDSREADFIELD: opening file: xx_salt.0000000000.001.001.data
(PID.TID 0000.0001) // =======================================================
(PID.TID 0000.0001) // Model current state
(PID.TID 0000.0001) // =======================================================
(PID.TID 0000.0001) 
(PID.TID 0000.0001)  MDSREADFIELD: opening file: tbar.0000000000.001.001.data
(PID.TID 0000.0001)  MDSREADFIELD: opening global file: labsea_SST_fields
(PID.TID 0000.0001)  MDSREADFIELD: opening file: adtbar.0000000000.001.001.data
(PID.TID 0000.0001)  MDSREADFIELD: opening file: adtbar.0000000000.001.001.data
(PID.TID 0000.0001)  MDSREADFIELD: opening file: adtbar.0000000000.001.001.data
(PID.TID 0000.0001)  MDSREADFIELD: opening file: adtbar.0000000000.001.001.data
(PID.TID 0000.0001)  MDSREADFIELD: opening file: adtbar.0000000000.001.001.data
(PID.TID 0000.0001)  MDSREADFIELD: opening file: adtbar.0000000000.001.001.data
(PID.TID 0000.0001)  MDSREADFIELD: opening file: adtbar.0000000000.001.001.data
(PID.TID 0000.0001)  MDSREADFIELD: opening file: adtbar.0000000000.001.001.data
(PID.TID 0000.0001)  MDSREADFIELD: opening file: adtbar.0000000000.001.001.data
(PID.TID 0000.0001)  MDSREADFIELD: opening file: adtbar.0000000000.001.001.data
(PID.TID 0000.0001)  MDSREADFIELD: opening file: adtbar.0000000000.001.001.data
(PID.TID 0000.0001)  MDSREADFIELD: opening file: adtbar.0000000000.001.001.data
(PID.TID 0000.0001)  MDSREADFIELD: opening file: adtbar.0000000000.001.001.data
(PID.TID 0000.0001)  MDSREADFIELD: opening file: adtbar.0000000000.001.001.data
(PID.TID 0000.0001)  MDSREADFIELD: opening file: adtbar.0000000000.001.001.data
(PID.TID 0000.0001)  MDSREADFIELD: opening file: adtbar.0000000000.001.001.data
(PID.TID 0000.0001)  MDSREADFIELD: opening file: adtbar.0000000000.001.001.data
(PID.TID 0000.0001)  MDSREADFIELD: opening file: adtbar.0000000000.001.001.data
(PID.TID 0000.0001)  MDSREADFIELD: opening file: adtbar.0000000000.001.001.data
(PID.TID 0000.0001)  MDSREADFIELD: opening file: adtbar.0000000000.001.001.data
(PID.TID 0000.0001)  MDSREADFIELD: opening file: adtbar.0000000000.001.001.data
(PID.TID 0000.0001)  MDSREADFIELD: opening file: adtbar.0000000000.001.001.data
(PID.TID 0000.0001)  MDSREADFIELD: opening file: adtbar.0000000000.001.001.data
(PID.TID 0000.0001)  MDSREADFIELD: opening file: psbar.0000000000.001.001.data
(PID.TID 0000.0001)  MDSREADFIELD: opening global file: labsea_TP_mean
(PID.TID 0000.0001)  MDSREADFIELD: opening file: psbar.0000000000.001.001.data
(PID.TID 0000.0001)  MDSREADFIELD: opening global file: labsea_TP_fields
(PID.TID 0000.0001)  MDSREADFIELD: opening global file: labsea_ERS_fields
(PID.TID 0000.0001)  MDSREADFIELD: opening file: adpsbar.0000000000.001.001.data
(PID.TID 0000.0001)  MDSREADFIELD: opening file: adpsbar.0000000000.001.001.data
(PID.TID 0000.0001)  MDSREADFIELD: opening file: sbar.0000000000.001.001.data
(PID.TID 0000.0001)  MDSREADFIELD: opening global file: labsea_Lev.salt
(PID.TID 0000.0001)  MDSREADFIELD: opening file: adsbar.0000000000.001.001.data
(PID.TID 0000.0001)  MDSREADFIELD: opening file: adsbar.0000000000.001.001.data
(PID.TID 0000.0001)  MDSREADFIELD: opening file: adsbar.0000000000.001.001.data
(PID.TID 0000.0001)  MDSREADFIELD: opening file: adsbar.0000000000.001.001.data
(PID.TID 0000.0001)  MDSREADFIELD: opening file: adsbar.0000000000.001.001.data
(PID.TID 0000.0001)  MDSREADFIELD: opening file: adsbar.0000000000.001.001.data
(PID.TID 0000.0001)  MDSREADFIELD: opening file: adsbar.0000000000.001.001.data
(PID.TID 0000.0001)  MDSREADFIELD: opening file: adsbar.0000000000.001.001.data
(PID.TID 0000.0001)  MDSREADFIELD: opening file: adsbar.0000000000.001.001.data
(PID.TID 0000.0001)  MDSREADFIELD: opening file: adsbar.0000000000.001.001.data
(PID.TID 0000.0001)  MDSREADFIELD: opening file: adsbar.0000000000.001.001.data
(PID.TID 0000.0001)  MDSREADFIELD: opening file: adsbar.0000000000.001.001.data
(PID.TID 0000.0001)  MDSREADFIELD: opening file: adsbar.0000000000.001.001.data
(PID.TID 0000.0001)  MDSREADFIELD: opening file: adsbar.0000000000.001.001.data
(PID.TID 0000.0001)  MDSREADFIELD: opening file: adsbar.0000000000.001.001.data
(PID.TID 0000.0001)  MDSREADFIELD: opening file: adsbar.0000000000.001.001.data
(PID.TID 0000.0001)  MDSREADFIELD: opening file: adsbar.0000000000.001.001.data
(PID.TID 0000.0001)  MDSREADFIELD: opening file: adsbar.0000000000.001.001.data
(PID.TID 0000.0001)  MDSREADFIELD: opening file: adsbar.0000000000.001.001.data
(PID.TID 0000.0001)  MDSREADFIELD: opening file: adsbar.0000000000.001.001.data
(PID.TID 0000.0001)  MDSREADFIELD: opening file: adsbar.0000000000.001.001.data
(PID.TID 0000.0001)  MDSREADFIELD: opening file: adsbar.0000000000.001.001.data
(PID.TID 0000.0001)  MDSREADFIELD: opening file: adsbar.0000000000.001.001.data
(PID.TID 0000.0001)  MDSREADFIELD: opening file: tbar.0000000000.001.001.data
(PID.TID 0000.0001)  MDSREADFIELD: opening global file: labsea_Lev.ptmp
(PID.TID 0000.0001)  MDSREADFIELD: opening file: adtbar.0000000000.001.001.data
(PID.TID 0000.0001)  MDSREADFIELD: opening file: adtbar.0000000000.001.001.data
(PID.TID 0000.0001)  MDSREADFIELD: opening file: adtbar.0000000000.001.001.data
(PID.TID 0000.0001)  MDSREADFIELD: opening file: adtbar.0000000000.001.001.data
(PID.TID 0000.0001)  MDSREADFIELD: opening file: adtbar.0000000000.001.001.data
(PID.TID 0000.0001)  MDSREADFIELD: opening file: adtbar.0000000000.001.001.data
(PID.TID 0000.0001)  MDSREADFIELD: opening file: adtbar.0000000000.001.001.data
(PID.TID 0000.0001)  MDSREADFIELD: opening file: adtbar.0000000000.001.001.data
(PID.TID 0000.0001)  MDSREADFIELD: opening file: adtbar.0000000000.001.001.data
(PID.TID 0000.0001)  MDSREADFIELD: opening file: adtbar.0000000000.001.001.data
(PID.TID 0000.0001)  MDSREADFIELD: opening file: adtbar.0000000000.001.001.data
(PID.TID 0000.0001)  MDSREADFIELD: opening file: adtbar.0000000000.001.001.data
(PID.TID 0000.0001)  MDSREADFIELD: opening file: adtbar.0000000000.001.001.data
(PID.TID 0000.0001)  MDSREADFIELD: opening file: adtbar.0000000000.001.001.data
(PID.TID 0000.0001)  MDSREADFIELD: opening file: adtbar.0000000000.001.001.data
(PID.TID 0000.0001)  MDSREADFIELD: opening file: adtbar.0000000000.001.001.data
(PID.TID 0000.0001)  MDSREADFIELD: opening file: adtbar.0000000000.001.001.data
(PID.TID 0000.0001)  MDSREADFIELD: opening file: adtbar.0000000000.001.001.data
(PID.TID 0000.0001)  MDSREADFIELD: opening file: adtbar.0000000000.001.001.data
(PID.TID 0000.0001)  MDSREADFIELD: opening file: adtbar.0000000000.001.001.data
(PID.TID 0000.0001)  MDSREADFIELD: opening file: adtbar.0000000000.001.001.data
(PID.TID 0000.0001)  MDSREADFIELD: opening file: adtbar.0000000000.001.001.data
(PID.TID 0000.0001)  MDSREADFIELD: opening file: adtbar.0000000000.001.001.data
(PID.TID 0000.0001)  MDSREADFIELD: opening file: tbar.0000000000.001.001.data
(PID.TID 0000.0001)  MDSREADFIELD: opening global file: labsea_SST_fields
(PID.TID 0000.0001)  MDSREADFIELD: opening file: adtbar.0000000000.001.001.data
(PID.TID 0000.0001)  MDSREADFIELD: opening file: adtbar.0000000000.001.001.data
(PID.TID 0000.0001)  MDSREADFIELD: opening file: adtbar.0000000000.001.001.data
(PID.TID 0000.0001)  MDSREADFIELD: opening file: adtbar.0000000000.001.001.data
(PID.TID 0000.0001)  MDSREADFIELD: opening file: adtbar.0000000000.001.001.data
(PID.TID 0000.0001)  MDSREADFIELD: opening file: adtbar.0000000000.001.001.data
(PID.TID 0000.0001)  MDSREADFIELD: opening file: adtbar.0000000000.001.001.data
(PID.TID 0000.0001)  MDSREADFIELD: opening file: adtbar.0000000000.001.001.data
(PID.TID 0000.0001)  MDSREADFIELD: opening file: adtbar.0000000000.001.001.data
(PID.TID 0000.0001)  MDSREADFIELD: opening file: adtbar.0000000000.001.001.data
(PID.TID 0000.0001)  MDSREADFIELD: opening file: adtbar.0000000000.001.001.data
(PID.TID 0000.0001)  MDSREADFIELD: opening file: adtbar.0000000000.001.001.data
(PID.TID 0000.0001)  MDSREADFIELD: opening file: adtbar.0000000000.001.001.data
(PID.TID 0000.0001)  MDSREADFIELD: opening file: adtbar.0000000000.001.001.data
(PID.TID 0000.0001)  MDSREADFIELD: opening file: adtbar.0000000000.001.001.data
(PID.TID 0000.0001)  MDSREADFIELD: opening file: adtbar.0000000000.001.001.data
(PID.TID 0000.0001)  MDSREADFIELD: opening file: adtbar.0000000000.001.001.data
(PID.TID 0000.0001)  MDSREADFIELD: opening file: adtbar.0000000000.001.001.data
(PID.TID 0000.0001)  MDSREADFIELD: opening file: adtbar.0000000000.001.001.data
(PID.TID 0000.0001)  MDSREADFIELD: opening file: adtbar.0000000000.001.001.data
(PID.TID 0000.0001)  MDSREADFIELD: opening file: adtbar.0000000000.001.001.data
(PID.TID 0000.0001)  MDSREADFIELD: opening file: adtbar.0000000000.001.001.data
(PID.TID 0000.0001)  MDSREADFIELD: opening file: adtbar.0000000000.001.001.data
(PID.TID 0000.0001)  MDSREADFIELD: opening file: adsbar.0000000000.001.001.data
(PID.TID 0000.0001)  MDSREADFIELD: opening file: adsbar.0000000000.001.001.data
(PID.TID 0000.0001)  MDSREADFIELD: opening file: adsbar.0000000000.001.001.data
(PID.TID 0000.0001)  MDSREADFIELD: opening file: adsbar.0000000000.001.001.data
(PID.TID 0000.0001)  MDSREADFIELD: opening file: adsbar.0000000000.001.001.data
(PID.TID 0000.0001)  MDSREADFIELD: opening file: adsbar.0000000000.001.001.data
(PID.TID 0000.0001)  MDSREADFIELD: opening file: adsbar.0000000000.001.001.data
(PID.TID 0000.0001)  MDSREADFIELD: opening file: adsbar.0000000000.001.001.data
(PID.TID 0000.0001)  MDSREADFIELD: opening file: adsbar.0000000000.001.001.data
(PID.TID 0000.0001)  MDSREADFIELD: opening file: adsbar.0000000000.001.001.data
(PID.TID 0000.0001)  MDSREADFIELD: opening file: adsbar.0000000000.001.001.data
(PID.TID 0000.0001)  MDSREADFIELD: opening file: adsbar.0000000000.001.001.data
(PID.TID 0000.0001)  MDSREADFIELD: opening file: adsbar.0000000000.001.001.data
(PID.TID 0000.0001)  MDSREADFIELD: opening file: adsbar.0000000000.001.001.data
(PID.TID 0000.0001)  MDSREADFIELD: opening file: adsbar.0000000000.001.001.data
(PID.TID 0000.0001)  MDSREADFIELD: opening file: adsbar.0000000000.001.001.data
(PID.TID 0000.0001)  MDSREADFIELD: opening file: adsbar.0000000000.001.001.data
(PID.TID 0000.0001)  MDSREADFIELD: opening file: adsbar.0000000000.001.001.data
(PID.TID 0000.0001)  MDSREADFIELD: opening file: adsbar.0000000000.001.001.data
(PID.TID 0000.0001)  MDSREADFIELD: opening file: adsbar.0000000000.001.001.data
(PID.TID 0000.0001)  MDSREADFIELD: opening file: adsbar.0000000000.001.001.data
(PID.TID 0000.0001)  MDSREADFIELD: opening file: adsbar.0000000000.001.001.data
(PID.TID 0000.0001)  MDSREADFIELD: opening file: adsbar.0000000000.001.001.data
(PID.TID 0000.0001)  MDSREADFIELD: opening file: adtbar.0000000000.001.001.data
(PID.TID 0000.0001)  MDSREADFIELD: opening file: adtbar.0000000000.001.001.data
(PID.TID 0000.0001)  MDSREADFIELD: opening file: adtbar.0000000000.001.001.data
(PID.TID 0000.0001)  MDSREADFIELD: opening file: adtbar.0000000000.001.001.data
(PID.TID 0000.0001)  MDSREADFIELD: opening file: adtbar.0000000000.001.001.data
(PID.TID 0000.0001)  MDSREADFIELD: opening file: adtbar.0000000000.001.001.data
(PID.TID 0000.0001)  MDSREADFIELD: opening file: adtbar.0000000000.001.001.data
(PID.TID 0000.0001)  MDSREADFIELD: opening file: adtbar.0000000000.001.001.data
(PID.TID 0000.0001)  MDSREADFIELD: opening file: adtbar.0000000000.001.001.data
(PID.TID 0000.0001)  MDSREADFIELD: opening file: adtbar.0000000000.001.001.data
(PID.TID 0000.0001)  MDSREADFIELD: opening file: adtbar.0000000000.001.001.data
(PID.TID 0000.0001)  MDSREADFIELD: opening file: adtbar.0000000000.001.001.data
(PID.TID 0000.0001)  MDSREADFIELD: opening file: adtbar.0000000000.001.001.data
(PID.TID 0000.0001)  MDSREADFIELD: opening file: adtbar.0000000000.001.001.data
(PID.TID 0000.0001)  MDSREADFIELD: opening file: adtbar.0000000000.001.001.data
(PID.TID 0000.0001)  MDSREADFIELD: opening file: adtbar.0000000000.001.001.data
(PID.TID 0000.0001)  MDSREADFIELD: opening file: adtbar.0000000000.001.001.data
(PID.TID 0000.0001)  MDSREADFIELD: opening file: adtbar.0000000000.001.001.data
(PID.TID 0000.0001)  MDSREADFIELD: opening file: adtbar.0000000000.001.001.data
(PID.TID 0000.0001)  MDSREADFIELD: opening file: adtbar.0000000000.001.001.data
(PID.TID 0000.0001)  MDSREADFIELD: opening file: adtbar.0000000000.001.001.data
(PID.TID 0000.0001)  MDSREADFIELD: opening file: adtbar.0000000000.001.001.data
(PID.TID 0000.0001)  MDSREADFIELD: opening file: adtbar.0000000000.001.001.data
(PID.TID 0000.0001)  MDSREADFIELD: opening file: adpsbar.0000000000.001.001.data
(PID.TID 0000.0001) %MON fCori_max                    =   1.4171638136144E-04
(PID.TID 0000.0001) %MON fCori_min                    =   1.0637108408252E-04
(PID.TID 0000.0001) %MON fCori_mean                   =   1.2676338344768E-04
(PID.TID 0000.0001) %MON fCori_sd                     =   1.1001401444773E-05
(PID.TID 0000.0001) %MON fCoriG_max                   =   1.4112379284621E-04
(PID.TID 0000.0001) %MON fCoriG_min                   =   1.0462373297123E-04
(PID.TID 0000.0001) %MON fCoriG_mean                  =   1.2556776212280E-04
(PID.TID 0000.0001) %MON fCoriG_sd                    =   1.1352720951562E-05
(PID.TID 0000.0001) // CG2D normalisation factor =          0.1609493984093919507084164E-03
(PID.TID 0000.0001) 
(PID.TID 0000.0001)  MDSREADFIELD: opening global file: LevCli_temp.labsea
(PID.TID 0000.0001) // =======================================================
(PID.TID 0000.0001) // Field Initial Temperature at iteration          1
(PID.TID 0000.0001) // CMIN =          9.205863475799561E-01
(PID.TID 0000.0001) // CMAX =          1.333307647705078E+01
(PID.TID 0000.0001) // CINT =          4.597218566470676E-01
(PID.TID 0000.0001) // SYMBOLS (CMIN->CMAX): -abcdefghijklmnopqrstuvwxyz+
(PID.TID 0000.0001) //                  0.0: .
(PID.TID 0000.0001) // RANGE I (Lo:Hi:Step):(   1:  20:   1)
(PID.TID 0000.0001) // RANGE J (Lo:Hi:Step):(  16:   1:  -1)
(PID.TID 0000.0001) // RANGE K (Lo:Hi:Step):(   1:   1:   1)
(PID.TID 0000.0001) // =======================================================
(PID.TID 0000.0001) K =   1
(PID.TID 0000.0001)                I=10      I=20
(PID.TID 0000.0001) |--J--|123456789|123456789|
(PID.TID 0000.0001)     16 .----...............
(PID.TID 0000.0001)     15 aabaaaaaaaa.........
(PID.TID 0000.0001)     14 .ccccccbbbbc........
(PID.TID 0000.0001)     13 ....dddddddd........
(PID.TID 0000.0001)     12 ......dcdddddd......
(PID.TID 0000.0001)     11 ........cccdd.......
(PID.TID 0000.0001)     10 .......bbcdddd......
(PID.TID 0000.0001)      9 .......cdeeffff....j
(PID.TID 0000.0001)      8 .....ccdefgghhggh..k
(PID.TID 0000.0001)      7 ......d.fghiiiiiijkl
(PID.TID 0000.0001)      6 .........ghhijjjkklm
(PID.TID 0000.0001)      5 ..........hhhijklmnn
(PID.TID 0000.0001)      4 ............ghikmopq
(PID.TID 0000.0001)      3 ..........k.hhiknqsu
(PID.TID 0000.0001)      2 .......oonm..ijknqux
(PID.TID 0000.0001)      1 ........qponlkklosw+
(PID.TID 0000.0001) // =======================================================
(PID.TID 0000.0001) // END OF FIELD                                          =
(PID.TID 0000.0001) // =======================================================
(PID.TID 0000.0001) 
(PID.TID 0000.0001)  MDSREADFIELD: opening global file: LevCli_salt.labsea
(PID.TID 0000.0001) // =======================================================
(PID.TID 0000.0001) // Field Initial Salinity at iteration          1
(PID.TID 0000.0001) // CMIN =          3.012869834899902E+01
(PID.TID 0000.0001) // CMAX =          3.487366104125977E+01
(PID.TID 0000.0001) // CINT =          1.757393589726201E-01
(PID.TID 0000.0001) // SYMBOLS (CMIN->CMAX): -abcdefghijklmnopqrstuvwxyz+
(PID.TID 0000.0001) //                  0.0: .
(PID.TID 0000.0001) // RANGE I (Lo:Hi:Step):(   1:  20:   1)
(PID.TID 0000.0001) // RANGE J (Lo:Hi:Step):(  16:   1:  -1)
(PID.TID 0000.0001) // RANGE K (Lo:Hi:Step):(   1:   1:   1)
(PID.TID 0000.0001) // =======================================================
(PID.TID 0000.0001) K =   1
(PID.TID 0000.0001)                I=10      I=20
(PID.TID 0000.0001) |--J--|123456789|123456789|
(PID.TID 0000.0001)     16 .nnos...............
(PID.TID 0000.0001)     15 lnoppppppol.........
(PID.TID 0000.0001)     14 .nponmllllmn........
(PID.TID 0000.0001)     13 ....ljhijkmo........
(PID.TID 0000.0001)     12 ......ghjlmors......
(PID.TID 0000.0001)     11 ........jmnpr.......
(PID.TID 0000.0001)     10 .......jlnpqrq......
(PID.TID 0000.0001)      9 .......noqsttts....w
(PID.TID 0000.0001)      8 .....jlnpsuvwwutu..x
(PID.TID 0000.0001)      7 ......j.rruwxyxxwxxy
(PID.TID 0000.0001)      6 .........ppruxyyzzzz
(PID.TID 0000.0001)      5 ..........ijoswyzzzz
(PID.TID 0000.0001)      4 ............iotwyzzz
(PID.TID 0000.0001)      3 ..........g.imquwyzz
(PID.TID 0000.0001)      2 .......-bef..knqtvxz
(PID.TID 0000.0001)      1 ........-cegijlosvy+
(PID.TID 0000.0001) // =======================================================
(PID.TID 0000.0001) // END OF FIELD                                          =
(PID.TID 0000.0001) // =======================================================
(PID.TID 0000.0001) 
(PID.TID 0000.0001)  MDSREADFIELD: opening file: xx_theta.0000000000.001.001.data
(PID.TID 0000.0001)  MDSREADFIELD: opening file: xx_salt.0000000000.001.001.data
(PID.TID 0000.0001) // =======================================================
(PID.TID 0000.0001) // Model current state
(PID.TID 0000.0001) // =======================================================
(PID.TID 0000.0001) 
(PID.TID 0000.0001) 
(PID.TID 0000.0001)  exf_GetFFieldsRec: first, changed, fac:   T   F   0.50000000E+00
(PID.TID 0000.0001)  exf_GetFFieldsRec:      count0, count1:   1   2
(PID.TID 0000.0001) 
(PID.TID 0000.0001)  MDSREADFIELD: opening global file: u10m.labsea79
(PID.TID 0000.0001)  MDSREADFIELD: opening global file: u10m.labsea79
(PID.TID 0000.0001) 
(PID.TID 0000.0001)  exf_GetFFieldsRec: first, changed, fac:   T   F   0.50000000E+00
(PID.TID 0000.0001)  exf_GetFFieldsRec:      count0, count1:   1   2
(PID.TID 0000.0001) 
(PID.TID 0000.0001)  MDSREADFIELD: opening global file: v10m.labsea79
(PID.TID 0000.0001)  MDSREADFIELD: opening global file: v10m.labsea79
(PID.TID 0000.0001)  MDSREADFIELD: opening file: xx_uwind.0000000000.001.001.data
(PID.TID 0000.0001)  MDSREADFIELD: opening file: xx_uwind.0000000000.001.001.data
(PID.TID 0000.0001)  MDSREADFIELD: opening file: xx_vwind.0000000000.001.001.data
(PID.TID 0000.0001)  MDSREADFIELD: opening file: xx_vwind.0000000000.001.001.data
(PID.TID 0000.0001) 
(PID.TID 0000.0001)  exf_GetFFieldsRec: first, changed, fac:   T   F   0.50000000E+00
(PID.TID 0000.0001)  exf_GetFFieldsRec:      count0, count1:   1   2
(PID.TID 0000.0001) 
(PID.TID 0000.0001)  MDSREADFIELD: opening global file: tair.labsea1979
(PID.TID 0000.0001)  MDSREADFIELD: opening global file: tair.labsea1979
(PID.TID 0000.0001) 
(PID.TID 0000.0001)  exf_GetFFieldsRec: first, changed, fac:   T   F   0.50000000E+00
(PID.TID 0000.0001)  exf_GetFFieldsRec:      count0, count1:   1   2
(PID.TID 0000.0001) 
(PID.TID 0000.0001)  MDSREADFIELD: opening global file: qa.labsea1979
(PID.TID 0000.0001)  MDSREADFIELD: opening global file: qa.labsea1979
(PID.TID 0000.0001) 
(PID.TID 0000.0001)  exf_GetFFieldsRec: first, changed, fac:   T   F   0.50000000E+00
(PID.TID 0000.0001)  exf_GetFFieldsRec:      count0, count1:   1   2
(PID.TID 0000.0001) 
(PID.TID 0000.0001)  MDSREADFIELD: opening global file: prate.labsea1979
(PID.TID 0000.0001)  MDSREADFIELD: opening global file: prate.labsea1979
(PID.TID 0000.0001)  MDSREADFIELD: opening file: xx_atemp.0000000000.001.001.data
(PID.TID 0000.0001)  MDSREADFIELD: opening file: xx_atemp.0000000000.001.001.data
(PID.TID 0000.0001)  MDSREADFIELD: opening file: xx_aqh.0000000000.001.001.data
(PID.TID 0000.0001)  MDSREADFIELD: opening file: xx_aqh.0000000000.001.001.data
(PID.TID 0000.0001) 
(PID.TID 0000.0001)  exf_GetFFieldsRec: first, changed, fac:   T   F   0.50000000E+00
(PID.TID 0000.0001)  exf_GetFFieldsRec:      count0, count1:   1   2
(PID.TID 0000.0001) 
(PID.TID 0000.0001)  MDSREADFIELD: opening global file: fsh.labsea1979
(PID.TID 0000.0001)  MDSREADFIELD: opening global file: fsh.labsea1979
(PID.TID 0000.0001) 
(PID.TID 0000.0001)  exf_GetFFieldsRec: first, changed, fac:   T   F   0.50000000E+00
(PID.TID 0000.0001)  exf_GetFFieldsRec:      count0, count1:   1   2
(PID.TID 0000.0001) 
(PID.TID 0000.0001)  MDSREADFIELD: opening global file: flo.labsea1979
(PID.TID 0000.0001)  MDSREADFIELD: opening global file: flo.labsea1979
 cg2d: Sum(rhs),rhsMax =   1.95590071916385E-16  1.00807802167630E+00
(PID.TID 0000.0001)                    cg2d_init_res =    1.61521300655486E+00
(PID.TID 0000.0001)                       cg2d_iters =    47
(PID.TID 0000.0001)                         cg2d_res =    5.70138941994743E-14
(PID.TID 0000.0001) 
(PID.TID 0000.0001)  exf_GetFFieldsRec: first, changed, fac:   F   F   0.49863388E+00
(PID.TID 0000.0001)  exf_GetFFieldsRec:      count0, count1:   1   2
(PID.TID 0000.0001) 
(PID.TID 0000.0001) 
(PID.TID 0000.0001)  exf_GetFFieldsRec: first, changed, fac:   F   F   0.49863388E+00
(PID.TID 0000.0001)  exf_GetFFieldsRec:      count0, count1:   1   2
(PID.TID 0000.0001) 
(PID.TID 0000.0001)  MDSREADFIELD: opening file: xx_uwind.0000000000.001.001.data
(PID.TID 0000.0001)  MDSREADFIELD: opening file: xx_uwind.0000000000.001.001.data
(PID.TID 0000.0001)  MDSREADFIELD: opening file: xx_vwind.0000000000.001.001.data
(PID.TID 0000.0001)  MDSREADFIELD: opening file: xx_vwind.0000000000.001.001.data
(PID.TID 0000.0001) 
(PID.TID 0000.0001)  exf_GetFFieldsRec: first, changed, fac:   F   F   0.49863388E+00
(PID.TID 0000.0001)  exf_GetFFieldsRec:      count0, count1:   1   2
(PID.TID 0000.0001) 
(PID.TID 0000.0001) 
(PID.TID 0000.0001)  exf_GetFFieldsRec: first, changed, fac:   F   F   0.49863388E+00
(PID.TID 0000.0001)  exf_GetFFieldsRec:      count0, count1:   1   2
(PID.TID 0000.0001) 
(PID.TID 0000.0001) 
(PID.TID 0000.0001)  exf_GetFFieldsRec: first, changed, fac:   F   F   0.49863388E+00
(PID.TID 0000.0001)  exf_GetFFieldsRec:      count0, count1:   1   2
(PID.TID 0000.0001) 
(PID.TID 0000.0001)  MDSREADFIELD: opening file: xx_atemp.0000000000.001.001.data
(PID.TID 0000.0001)  MDSREADFIELD: opening file: xx_atemp.0000000000.001.001.data
(PID.TID 0000.0001)  MDSREADFIELD: opening file: xx_aqh.0000000000.001.001.data
(PID.TID 0000.0001)  MDSREADFIELD: opening file: xx_aqh.0000000000.001.001.data
(PID.TID 0000.0001) 
(PID.TID 0000.0001)  exf_GetFFieldsRec: first, changed, fac:   F   F   0.49863388E+00
(PID.TID 0000.0001)  exf_GetFFieldsRec:      count0, count1:   1   2
(PID.TID 0000.0001) 
(PID.TID 0000.0001) 
(PID.TID 0000.0001)  exf_GetFFieldsRec: first, changed, fac:   F   F   0.49863388E+00
(PID.TID 0000.0001)  exf_GetFFieldsRec:      count0, count1:   1   2
(PID.TID 0000.0001) 
 cg2d: Sum(rhs),rhsMax =   7.37474317724640E-16  1.23585471329616E+00
(PID.TID 0000.0001)                    cg2d_init_res =    3.48544561450945E-01
(PID.TID 0000.0001)                       cg2d_iters =    45
(PID.TID 0000.0001)                         cg2d_res =    6.49477568692734E-14
(PID.TID 0000.0001) 
(PID.TID 0000.0001)  exf_GetFFieldsRec: first, changed, fac:   F   F   0.49726776E+00
(PID.TID 0000.0001)  exf_GetFFieldsRec:      count0, count1:   1   2
(PID.TID 0000.0001) 
(PID.TID 0000.0001) 
(PID.TID 0000.0001)  exf_GetFFieldsRec: first, changed, fac:   F   F   0.49726776E+00
(PID.TID 0000.0001)  exf_GetFFieldsRec:      count0, count1:   1   2
(PID.TID 0000.0001) 
(PID.TID 0000.0001)  MDSREADFIELD: opening file: xx_uwind.0000000000.001.001.data
(PID.TID 0000.0001)  MDSREADFIELD: opening file: xx_uwind.0000000000.001.001.data
(PID.TID 0000.0001)  MDSREADFIELD: opening file: xx_vwind.0000000000.001.001.data
(PID.TID 0000.0001)  MDSREADFIELD: opening file: xx_vwind.0000000000.001.001.data
(PID.TID 0000.0001) 
(PID.TID 0000.0001)  exf_GetFFieldsRec: first, changed, fac:   F   F   0.49726776E+00
(PID.TID 0000.0001)  exf_GetFFieldsRec:      count0, count1:   1   2
(PID.TID 0000.0001) 
(PID.TID 0000.0001) 
(PID.TID 0000.0001)  exf_GetFFieldsRec: first, changed, fac:   F   F   0.49726776E+00
(PID.TID 0000.0001)  exf_GetFFieldsRec:      count0, count1:   1   2
(PID.TID 0000.0001) 
(PID.TID 0000.0001) 
(PID.TID 0000.0001)  exf_GetFFieldsRec: first, changed, fac:   F   F   0.49726776E+00
(PID.TID 0000.0001)  exf_GetFFieldsRec:      count0, count1:   1   2
(PID.TID 0000.0001) 
(PID.TID 0000.0001)  MDSREADFIELD: opening file: xx_atemp.0000000000.001.001.data
(PID.TID 0000.0001)  MDSREADFIELD: opening file: xx_atemp.0000000000.001.001.data
(PID.TID 0000.0001)  MDSREADFIELD: opening file: xx_aqh.0000000000.001.001.data
(PID.TID 0000.0001)  MDSREADFIELD: opening file: xx_aqh.0000000000.001.001.data
(PID.TID 0000.0001) 
(PID.TID 0000.0001)  exf_GetFFieldsRec: first, changed, fac:   F   F   0.49726776E+00
(PID.TID 0000.0001)  exf_GetFFieldsRec:      count0, count1:   1   2
(PID.TID 0000.0001) 
(PID.TID 0000.0001) 
(PID.TID 0000.0001)  exf_GetFFieldsRec: first, changed, fac:   F   F   0.49726776E+00
(PID.TID 0000.0001)  exf_GetFFieldsRec:      count0, count1:   1   2
(PID.TID 0000.0001) 
 cg2d: Sum(rhs),rhsMax =   6.20553955443803E-15  1.25438452343302E+00
(PID.TID 0000.0001)                    cg2d_init_res =    2.36078257971889E-01
(PID.TID 0000.0001)                       cg2d_iters =    45
(PID.TID 0000.0001)                         cg2d_res =    6.62546240702124E-14
(PID.TID 0000.0001) 
(PID.TID 0000.0001)  exf_GetFFieldsRec: first, changed, fac:   F   F   0.49590164E+00
(PID.TID 0000.0001)  exf_GetFFieldsRec:      count0, count1:   1   2
(PID.TID 0000.0001) 
(PID.TID 0000.0001) 
(PID.TID 0000.0001)  exf_GetFFieldsRec: first, changed, fac:   F   F   0.49590164E+00
(PID.TID 0000.0001)  exf_GetFFieldsRec:      count0, count1:   1   2
(PID.TID 0000.0001) 
(PID.TID 0000.0001)  MDSREADFIELD: opening file: xx_uwind.0000000000.001.001.data
(PID.TID 0000.0001)  MDSREADFIELD: opening file: xx_uwind.0000000000.001.001.data
(PID.TID 0000.0001)  MDSREADFIELD: opening file: xx_vwind.0000000000.001.001.data
(PID.TID 0000.0001)  MDSREADFIELD: opening file: xx_vwind.0000000000.001.001.data
(PID.TID 0000.0001) 
(PID.TID 0000.0001)  exf_GetFFieldsRec: first, changed, fac:   F   F   0.49590164E+00
(PID.TID 0000.0001)  exf_GetFFieldsRec:      count0, count1:   1   2
(PID.TID 0000.0001) 
(PID.TID 0000.0001) 
(PID.TID 0000.0001)  exf_GetFFieldsRec: first, changed, fac:   F   F   0.49590164E+00
(PID.TID 0000.0001)  exf_GetFFieldsRec:      count0, count1:   1   2
(PID.TID 0000.0001) 
(PID.TID 0000.0001) 
(PID.TID 0000.0001)  exf_GetFFieldsRec: first, changed, fac:   F   F   0.49590164E+00
(PID.TID 0000.0001)  exf_GetFFieldsRec:      count0, count1:   1   2
(PID.TID 0000.0001) 
(PID.TID 0000.0001)  MDSREADFIELD: opening file: xx_atemp.0000000000.001.001.data
(PID.TID 0000.0001)  MDSREADFIELD: opening file: xx_atemp.0000000000.001.001.data
(PID.TID 0000.0001)  MDSREADFIELD: opening file: xx_aqh.0000000000.001.001.data
(PID.TID 0000.0001)  MDSREADFIELD: opening file: xx_aqh.0000000000.001.001.data
(PID.TID 0000.0001) 
(PID.TID 0000.0001)  exf_GetFFieldsRec: first, changed, fac:   F   F   0.49590164E+00
(PID.TID 0000.0001)  exf_GetFFieldsRec:      count0, count1:   1   2
(PID.TID 0000.0001) 
(PID.TID 0000.0001) 
(PID.TID 0000.0001)  exf_GetFFieldsRec: first, changed, fac:   F   F   0.49590164E+00
(PID.TID 0000.0001)  exf_GetFFieldsRec:      count0, count1:   1   2
(PID.TID 0000.0001) 
 cg2d: Sum(rhs),rhsMax =   3.20620266447413E-15  1.25494322187447E+00
(PID.TID 0000.0001)                    cg2d_init_res =    1.82553144014713E-01
(PID.TID 0000.0001)                       cg2d_iters =    45
(PID.TID 0000.0001)                         cg2d_res =    5.12415163303431E-14
(PID.TID 0000.0001) %MON fCori_max                    =   1.4171638136144E-04
(PID.TID 0000.0001) %MON fCori_min                    =   1.0637108408252E-04
(PID.TID 0000.0001) %MON fCori_mean                   =   1.2676338344768E-04
(PID.TID 0000.0001) %MON fCori_sd                     =   1.1001401444773E-05
(PID.TID 0000.0001) %MON fCoriG_max                   =   1.4112379284621E-04
(PID.TID 0000.0001) %MON fCoriG_min                   =   1.0462373297123E-04
(PID.TID 0000.0001) %MON fCoriG_mean                  =   1.2556776212280E-04
(PID.TID 0000.0001) %MON fCoriG_sd                    =   1.1352720951562E-05
(PID.TID 0000.0001) // CG2D normalisation factor =          0.1609493984093919507084164E-03
(PID.TID 0000.0001) 
(PID.TID 0000.0001)  MDSREADFIELD: opening global file: LevCli_temp.labsea
(PID.TID 0000.0001) // =======================================================
(PID.TID 0000.0001) // Field Initial Temperature at iteration          1
(PID.TID 0000.0001) // CMIN =          9.205863475799561E-01
(PID.TID 0000.0001) // CMAX =          1.333307647705078E+01
(PID.TID 0000.0001) // CINT =          4.597218566470676E-01
(PID.TID 0000.0001) // SYMBOLS (CMIN->CMAX): -abcdefghijklmnopqrstuvwxyz+
(PID.TID 0000.0001) //                  0.0: .
(PID.TID 0000.0001) // RANGE I (Lo:Hi:Step):(   1:  20:   1)
(PID.TID 0000.0001) // RANGE J (Lo:Hi:Step):(  16:   1:  -1)
(PID.TID 0000.0001) // RANGE K (Lo:Hi:Step):(   1:   1:   1)
(PID.TID 0000.0001) // =======================================================
(PID.TID 0000.0001) K =   1
(PID.TID 0000.0001)                I=10      I=20
(PID.TID 0000.0001) |--J--|123456789|123456789|
(PID.TID 0000.0001)     16 .----...............
(PID.TID 0000.0001)     15 aabaaaaaaaa.........
(PID.TID 0000.0001)     14 .ccccccbbbbc........
(PID.TID 0000.0001)     13 ....dddddddd........
(PID.TID 0000.0001)     12 ......dcdddddd......
(PID.TID 0000.0001)     11 ........cccdd.......
(PID.TID 0000.0001)     10 .......bbcdddd......
(PID.TID 0000.0001)      9 .......cdeeffff....j
(PID.TID 0000.0001)      8 .....ccdefgghhggh..k
(PID.TID 0000.0001)      7 ......d.fghiiiiiijkl
(PID.TID 0000.0001)      6 .........ghhijjjkklm
(PID.TID 0000.0001)      5 ..........hhhijklmnn
(PID.TID 0000.0001)      4 ............ghikmopq
(PID.TID 0000.0001)      3 ..........k.hhiknqsu
(PID.TID 0000.0001)      2 .......oonm..ijknqux
(PID.TID 0000.0001)      1 ........qponlkklosw+
(PID.TID 0000.0001) // =======================================================
(PID.TID 0000.0001) // END OF FIELD                                          =
(PID.TID 0000.0001) // =======================================================
(PID.TID 0000.0001) 
(PID.TID 0000.0001)  MDSREADFIELD: opening global file: LevCli_salt.labsea
(PID.TID 0000.0001) // =======================================================
(PID.TID 0000.0001) // Field Initial Salinity at iteration          1
(PID.TID 0000.0001) // CMIN =          3.012869834899902E+01
(PID.TID 0000.0001) // CMAX =          3.487366104125977E+01
(PID.TID 0000.0001) // CINT =          1.757393589726201E-01
(PID.TID 0000.0001) // SYMBOLS (CMIN->CMAX): -abcdefghijklmnopqrstuvwxyz+
(PID.TID 0000.0001) //                  0.0: .
(PID.TID 0000.0001) // RANGE I (Lo:Hi:Step):(   1:  20:   1)
(PID.TID 0000.0001) // RANGE J (Lo:Hi:Step):(  16:   1:  -1)
(PID.TID 0000.0001) // RANGE K (Lo:Hi:Step):(   1:   1:   1)
(PID.TID 0000.0001) // =======================================================
(PID.TID 0000.0001) K =   1
(PID.TID 0000.0001)                I=10      I=20
(PID.TID 0000.0001) |--J--|123456789|123456789|
(PID.TID 0000.0001)     16 .nnos...............
(PID.TID 0000.0001)     15 lnoppppppol.........
(PID.TID 0000.0001)     14 .nponmllllmn........
(PID.TID 0000.0001)     13 ....ljhijkmo........
(PID.TID 0000.0001)     12 ......ghjlmors......
(PID.TID 0000.0001)     11 ........jmnpr.......
(PID.TID 0000.0001)     10 .......jlnpqrq......
(PID.TID 0000.0001)      9 .......noqsttts....w
(PID.TID 0000.0001)      8 .....jlnpsuvwwutu..x
(PID.TID 0000.0001)      7 ......j.rruwxyxxwxxy
(PID.TID 0000.0001)      6 .........ppruxyyzzzz
(PID.TID 0000.0001)      5 ..........ijoswyzzzz
(PID.TID 0000.0001)      4 ............iotwyzzz
(PID.TID 0000.0001)      3 ..........g.imquwyzz
(PID.TID 0000.0001)      2 .......-bef..knqtvxz
(PID.TID 0000.0001)      1 ........-cegijlosvy+
(PID.TID 0000.0001) // =======================================================
(PID.TID 0000.0001) // END OF FIELD                                          =
(PID.TID 0000.0001) // =======================================================
(PID.TID 0000.0001) 
(PID.TID 0000.0001)  MDSREADFIELD: opening file: xx_theta.0000000000.001.001.data
(PID.TID 0000.0001)  MDSREADFIELD: opening file: xx_salt.0000000000.001.001.data
(PID.TID 0000.0001) // =======================================================
(PID.TID 0000.0001) // Model current state
(PID.TID 0000.0001) // =======================================================
(PID.TID 0000.0001) 
(PID.TID 0000.0001) 
(PID.TID 0000.0001)  exf_GetFFieldsRec: first, changed, fac:   T   F   0.50000000E+00
(PID.TID 0000.0001)  exf_GetFFieldsRec:      count0, count1:   1   2
(PID.TID 0000.0001) 
(PID.TID 0000.0001)  MDSREADFIELD: opening global file: u10m.labsea79
(PID.TID 0000.0001)  MDSREADFIELD: opening global file: u10m.labsea79
(PID.TID 0000.0001) 
(PID.TID 0000.0001)  exf_GetFFieldsRec: first, changed, fac:   T   F   0.50000000E+00
(PID.TID 0000.0001)  exf_GetFFieldsRec:      count0, count1:   1   2
(PID.TID 0000.0001) 
(PID.TID 0000.0001)  MDSREADFIELD: opening global file: v10m.labsea79
(PID.TID 0000.0001)  MDSREADFIELD: opening global file: v10m.labsea79
(PID.TID 0000.0001)  MDSREADFIELD: opening file: xx_uwind.0000000000.001.001.data
(PID.TID 0000.0001)  MDSREADFIELD: opening file: xx_uwind.0000000000.001.001.data
(PID.TID 0000.0001)  MDSREADFIELD: opening file: xx_vwind.0000000000.001.001.data
(PID.TID 0000.0001)  MDSREADFIELD: opening file: xx_vwind.0000000000.001.001.data
(PID.TID 0000.0001) 
(PID.TID 0000.0001)  exf_GetFFieldsRec: first, changed, fac:   T   F   0.50000000E+00
(PID.TID 0000.0001)  exf_GetFFieldsRec:      count0, count1:   1   2
(PID.TID 0000.0001) 
(PID.TID 0000.0001)  MDSREADFIELD: opening global file: tair.labsea1979
(PID.TID 0000.0001)  MDSREADFIELD: opening global file: tair.labsea1979
(PID.TID 0000.0001) 
(PID.TID 0000.0001)  exf_GetFFieldsRec: first, changed, fac:   T   F   0.50000000E+00
(PID.TID 0000.0001)  exf_GetFFieldsRec:      count0, count1:   1   2
(PID.TID 0000.0001) 
(PID.TID 0000.0001)  MDSREADFIELD: opening global file: qa.labsea1979
(PID.TID 0000.0001)  MDSREADFIELD: opening global file: qa.labsea1979
(PID.TID 0000.0001) 
(PID.TID 0000.0001)  exf_GetFFieldsRec: first, changed, fac:   T   F   0.50000000E+00
(PID.TID 0000.0001)  exf_GetFFieldsRec:      count0, count1:   1   2
(PID.TID 0000.0001) 
(PID.TID 0000.0001)  MDSREADFIELD: opening global file: prate.labsea1979
(PID.TID 0000.0001)  MDSREADFIELD: opening global file: prate.labsea1979
(PID.TID 0000.0001)  MDSREADFIELD: opening file: xx_atemp.0000000000.001.001.data
(PID.TID 0000.0001)  MDSREADFIELD: opening file: xx_atemp.0000000000.001.001.data
(PID.TID 0000.0001)  MDSREADFIELD: opening file: xx_aqh.0000000000.001.001.data
(PID.TID 0000.0001)  MDSREADFIELD: opening file: xx_aqh.0000000000.001.001.data
(PID.TID 0000.0001) 
(PID.TID 0000.0001)  exf_GetFFieldsRec: first, changed, fac:   T   F   0.50000000E+00
(PID.TID 0000.0001)  exf_GetFFieldsRec:      count0, count1:   1   2
(PID.TID 0000.0001) 
(PID.TID 0000.0001)  MDSREADFIELD: opening global file: fsh.labsea1979
(PID.TID 0000.0001)  MDSREADFIELD: opening global file: fsh.labsea1979
(PID.TID 0000.0001) 
(PID.TID 0000.0001)  exf_GetFFieldsRec: first, changed, fac:   T   F   0.50000000E+00
(PID.TID 0000.0001)  exf_GetFFieldsRec:      count0, count1:   1   2
(PID.TID 0000.0001) 
(PID.TID 0000.0001)  MDSREADFIELD: opening global file: flo.labsea1979
(PID.TID 0000.0001)  MDSREADFIELD: opening global file: flo.labsea1979
 cg2d: Sum(rhs),rhsMax =   1.95590071916385E-16  1.00807802167630E+00
(PID.TID 0000.0001)                    cg2d_init_res =    1.61521300655486E+00
(PID.TID 0000.0001)                       cg2d_iters =    47
(PID.TID 0000.0001)                         cg2d_res =    5.70138941994743E-14
(PID.TID 0000.0001) 
(PID.TID 0000.0001)  exf_GetFFieldsRec: first, changed, fac:   F   F   0.49863388E+00
(PID.TID 0000.0001)  exf_GetFFieldsRec:      count0, count1:   1   2
(PID.TID 0000.0001) 
(PID.TID 0000.0001) 
(PID.TID 0000.0001)  exf_GetFFieldsRec: first, changed, fac:   F   F   0.49863388E+00
(PID.TID 0000.0001)  exf_GetFFieldsRec:      count0, count1:   1   2
(PID.TID 0000.0001) 
(PID.TID 0000.0001)  MDSREADFIELD: opening file: xx_uwind.0000000000.001.001.data
(PID.TID 0000.0001)  MDSREADFIELD: opening file: xx_uwind.0000000000.001.001.data
(PID.TID 0000.0001)  MDSREADFIELD: opening file: xx_vwind.0000000000.001.001.data
(PID.TID 0000.0001)  MDSREADFIELD: opening file: xx_vwind.0000000000.001.001.data
(PID.TID 0000.0001) 
(PID.TID 0000.0001)  exf_GetFFieldsRec: first, changed, fac:   F   F   0.49863388E+00
(PID.TID 0000.0001)  exf_GetFFieldsRec:      count0, count1:   1   2
(PID.TID 0000.0001) 
(PID.TID 0000.0001) 
(PID.TID 0000.0001)  exf_GetFFieldsRec: first, changed, fac:   F   F   0.49863388E+00
(PID.TID 0000.0001)  exf_GetFFieldsRec:      count0, count1:   1   2
(PID.TID 0000.0001) 
(PID.TID 0000.0001) 
(PID.TID 0000.0001)  exf_GetFFieldsRec: first, changed, fac:   F   F   0.49863388E+00
(PID.TID 0000.0001)  exf_GetFFieldsRec:      count0, count1:   1   2
(PID.TID 0000.0001) 
(PID.TID 0000.0001)  MDSREADFIELD: opening file: xx_atemp.0000000000.001.001.data
(PID.TID 0000.0001)  MDSREADFIELD: opening file: xx_atemp.0000000000.001.001.data
(PID.TID 0000.0001)  MDSREADFIELD: opening file: xx_aqh.0000000000.001.001.data
(PID.TID 0000.0001)  MDSREADFIELD: opening file: xx_aqh.0000000000.001.001.data
(PID.TID 0000.0001) 
(PID.TID 0000.0001)  exf_GetFFieldsRec: first, changed, fac:   F   F   0.49863388E+00
(PID.TID 0000.0001)  exf_GetFFieldsRec:      count0, count1:   1   2
(PID.TID 0000.0001) 
(PID.TID 0000.0001) 
(PID.TID 0000.0001)  exf_GetFFieldsRec: first, changed, fac:   F   F   0.49863388E+00
(PID.TID 0000.0001)  exf_GetFFieldsRec:      count0, count1:   1   2
(PID.TID 0000.0001) 
 cg2d: Sum(rhs),rhsMax =   7.37474317724640E-16  1.23585471329616E+00
(PID.TID 0000.0001)                    cg2d_init_res =    3.48544561450945E-01
(PID.TID 0000.0001)                       cg2d_iters =    45
(PID.TID 0000.0001)                         cg2d_res =    6.49477568692734E-14
(PID.TID 0000.0001) 
(PID.TID 0000.0001)  exf_GetFFieldsRec: first, changed, fac:   F   F   0.49726776E+00
(PID.TID 0000.0001)  exf_GetFFieldsRec:      count0, count1:   1   2
(PID.TID 0000.0001) 
(PID.TID 0000.0001) 
(PID.TID 0000.0001)  exf_GetFFieldsRec: first, changed, fac:   F   F   0.49726776E+00
(PID.TID 0000.0001)  exf_GetFFieldsRec:      count0, count1:   1   2
(PID.TID 0000.0001) 
(PID.TID 0000.0001)  MDSREADFIELD: opening file: xx_uwind.0000000000.001.001.data
(PID.TID 0000.0001)  MDSREADFIELD: opening file: xx_uwind.0000000000.001.001.data
(PID.TID 0000.0001)  MDSREADFIELD: opening file: xx_vwind.0000000000.001.001.data
(PID.TID 0000.0001)  MDSREADFIELD: opening file: xx_vwind.0000000000.001.001.data
(PID.TID 0000.0001) 
(PID.TID 0000.0001)  exf_GetFFieldsRec: first, changed, fac:   F   F   0.49726776E+00
(PID.TID 0000.0001)  exf_GetFFieldsRec:      count0, count1:   1   2
(PID.TID 0000.0001) 
(PID.TID 0000.0001) 
(PID.TID 0000.0001)  exf_GetFFieldsRec: first, changed, fac:   F   F   0.49726776E+00
(PID.TID 0000.0001)  exf_GetFFieldsRec:      count0, count1:   1   2
(PID.TID 0000.0001) 
(PID.TID 0000.0001) 
(PID.TID 0000.0001)  exf_GetFFieldsRec: first, changed, fac:   F   F   0.49726776E+00
(PID.TID 0000.0001)  exf_GetFFieldsRec:      count0, count1:   1   2
(PID.TID 0000.0001) 
(PID.TID 0000.0001)  MDSREADFIELD: opening file: xx_atemp.0000000000.001.001.data
(PID.TID 0000.0001)  MDSREADFIELD: opening file: xx_atemp.0000000000.001.001.data
(PID.TID 0000.0001)  MDSREADFIELD: opening file: xx_aqh.0000000000.001.001.data
(PID.TID 0000.0001)  MDSREADFIELD: opening file: xx_aqh.0000000000.001.001.data
(PID.TID 0000.0001) 
(PID.TID 0000.0001)  exf_GetFFieldsRec: first, changed, fac:   F   F   0.49726776E+00
(PID.TID 0000.0001)  exf_GetFFieldsRec:      count0, count1:   1   2
(PID.TID 0000.0001) 
(PID.TID 0000.0001) 
(PID.TID 0000.0001)  exf_GetFFieldsRec: first, changed, fac:   F   F   0.49726776E+00
(PID.TID 0000.0001)  exf_GetFFieldsRec:      count0, count1:   1   2
(PID.TID 0000.0001) 
 cg2d: Sum(rhs),rhsMax =   6.20553955443803E-15  1.25438452343302E+00
(PID.TID 0000.0001)                    cg2d_init_res =    2.36078257971889E-01
(PID.TID 0000.0001)                       cg2d_iters =    45
(PID.TID 0000.0001)                         cg2d_res =    6.62546240702124E-14
(PID.TID 0000.0001) 
(PID.TID 0000.0001)  exf_GetFFieldsRec: first, changed, fac:   F   F   0.49590164E+00
(PID.TID 0000.0001)  exf_GetFFieldsRec:      count0, count1:   1   2
(PID.TID 0000.0001) 
(PID.TID 0000.0001) 
(PID.TID 0000.0001)  exf_GetFFieldsRec: first, changed, fac:   F   F   0.49590164E+00
(PID.TID 0000.0001)  exf_GetFFieldsRec:      count0, count1:   1   2
(PID.TID 0000.0001) 
(PID.TID 0000.0001)  MDSREADFIELD: opening file: xx_uwind.0000000000.001.001.data
(PID.TID 0000.0001)  MDSREADFIELD: opening file: xx_uwind.0000000000.001.001.data
(PID.TID 0000.0001)  MDSREADFIELD: opening file: xx_vwind.0000000000.001.001.data
(PID.TID 0000.0001)  MDSREADFIELD: opening file: xx_vwind.0000000000.001.001.data
(PID.TID 0000.0001) 
(PID.TID 0000.0001)  exf_GetFFieldsRec: first, changed, fac:   F   F   0.49590164E+00
(PID.TID 0000.0001)  exf_GetFFieldsRec:      count0, count1:   1   2
(PID.TID 0000.0001) 
(PID.TID 0000.0001) 
(PID.TID 0000.0001)  exf_GetFFieldsRec: first, changed, fac:   F   F   0.49590164E+00
(PID.TID 0000.0001)  exf_GetFFieldsRec:      count0, count1:   1   2
(PID.TID 0000.0001) 
(PID.TID 0000.0001) 
(PID.TID 0000.0001)  exf_GetFFieldsRec: first, changed, fac:   F   F   0.49590164E+00
(PID.TID 0000.0001)  exf_GetFFieldsRec:      count0, count1:   1   2
(PID.TID 0000.0001) 
(PID.TID 0000.0001)  MDSREADFIELD: opening file: xx_atemp.0000000000.001.001.data
(PID.TID 0000.0001)  MDSREADFIELD: opening file: xx_atemp.0000000000.001.001.data
(PID.TID 0000.0001)  MDSREADFIELD: opening file: xx_aqh.0000000000.001.001.data
(PID.TID 0000.0001)  MDSREADFIELD: opening file: xx_aqh.0000000000.001.001.data
(PID.TID 0000.0001) 
(PID.TID 0000.0001)  exf_GetFFieldsRec: first, changed, fac:   F   F   0.49590164E+00
(PID.TID 0000.0001)  exf_GetFFieldsRec:      count0, count1:   1   2
(PID.TID 0000.0001) 
(PID.TID 0000.0001) 
(PID.TID 0000.0001)  exf_GetFFieldsRec: first, changed, fac:   F   F   0.49590164E+00
(PID.TID 0000.0001)  exf_GetFFieldsRec:      count0, count1:   1   2
(PID.TID 0000.0001) 
 cg2d: Sum(rhs),rhsMax =   3.20620266447413E-15  1.25494322187447E+00
(PID.TID 0000.0001)                    cg2d_init_res =    1.82553144014713E-01
(PID.TID 0000.0001)                       cg2d_iters =    45
(PID.TID 0000.0001)                         cg2d_res =    5.12415163303431E-14
(PID.TID 0000.0001) %MON fCori_max                    =   1.4171638136144E-04
(PID.TID 0000.0001) %MON fCori_min                    =   1.0637108408252E-04
(PID.TID 0000.0001) %MON fCori_mean                   =   1.2676338344768E-04
(PID.TID 0000.0001) %MON fCori_sd                     =   1.1001401444773E-05
(PID.TID 0000.0001) %MON fCoriG_max                   =   1.4112379284621E-04
(PID.TID 0000.0001) %MON fCoriG_min                   =   1.0462373297123E-04
(PID.TID 0000.0001) %MON fCoriG_mean                  =   1.2556776212280E-04
(PID.TID 0000.0001) %MON fCoriG_sd                    =   1.1352720951562E-05
(PID.TID 0000.0001) // CG2D normalisation factor =          0.1609493984093919507084164E-03
(PID.TID 0000.0001) 
(PID.TID 0000.0001)  MDSREADFIELD: opening global file: LevCli_temp.labsea
(PID.TID 0000.0001) // =======================================================
(PID.TID 0000.0001) // Field Initial Temperature at iteration          1
(PID.TID 0000.0001) // CMIN =          9.205863475799561E-01
(PID.TID 0000.0001) // CMAX =          1.333307647705078E+01
(PID.TID 0000.0001) // CINT =          4.597218566470676E-01
(PID.TID 0000.0001) // SYMBOLS (CMIN->CMAX): -abcdefghijklmnopqrstuvwxyz+
(PID.TID 0000.0001) //                  0.0: .
(PID.TID 0000.0001) // RANGE I (Lo:Hi:Step):(   1:  20:   1)
(PID.TID 0000.0001) // RANGE J (Lo:Hi:Step):(  16:   1:  -1)
(PID.TID 0000.0001) // RANGE K (Lo:Hi:Step):(   1:   1:   1)
(PID.TID 0000.0001) // =======================================================
(PID.TID 0000.0001) K =   1
(PID.TID 0000.0001)                I=10      I=20
(PID.TID 0000.0001) |--J--|123456789|123456789|
(PID.TID 0000.0001)     16 .----...............
(PID.TID 0000.0001)     15 aabaaaaaaaa.........
(PID.TID 0000.0001)     14 .ccccccbbbbc........
(PID.TID 0000.0001)     13 ....dddddddd........
(PID.TID 0000.0001)     12 ......dcdddddd......
(PID.TID 0000.0001)     11 ........cccdd.......
(PID.TID 0000.0001)     10 .......bbcdddd......
(PID.TID 0000.0001)      9 .......cdeeffff....j
(PID.TID 0000.0001)      8 .....ccdefgghhggh..k
(PID.TID 0000.0001)      7 ......d.fghiiiiiijkl
(PID.TID 0000.0001)      6 .........ghhijjjkklm
(PID.TID 0000.0001)      5 ..........hhhijklmnn
(PID.TID 0000.0001)      4 ............ghikmopq
(PID.TID 0000.0001)      3 ..........k.hhiknqsu
(PID.TID 0000.0001)      2 .......oonm..ijknqux
(PID.TID 0000.0001)      1 ........qponlkklosw+
(PID.TID 0000.0001) // =======================================================
(PID.TID 0000.0001) // END OF FIELD                                          =
(PID.TID 0000.0001) // =======================================================
(PID.TID 0000.0001) 
(PID.TID 0000.0001)  MDSREADFIELD: opening global file: LevCli_salt.labsea
(PID.TID 0000.0001) // =======================================================
(PID.TID 0000.0001) // Field Initial Salinity at iteration          1
(PID.TID 0000.0001) // CMIN =          3.012869834899902E+01
(PID.TID 0000.0001) // CMAX =          3.487366104125977E+01
(PID.TID 0000.0001) // CINT =          1.757393589726201E-01
(PID.TID 0000.0001) // SYMBOLS (CMIN->CMAX): -abcdefghijklmnopqrstuvwxyz+
(PID.TID 0000.0001) //                  0.0: .
(PID.TID 0000.0001) // RANGE I (Lo:Hi:Step):(   1:  20:   1)
(PID.TID 0000.0001) // RANGE J (Lo:Hi:Step):(  16:   1:  -1)
(PID.TID 0000.0001) // RANGE K (Lo:Hi:Step):(   1:   1:   1)
(PID.TID 0000.0001) // =======================================================
(PID.TID 0000.0001) K =   1
(PID.TID 0000.0001)                I=10      I=20
(PID.TID 0000.0001) |--J--|123456789|123456789|
(PID.TID 0000.0001)     16 .nnos...............
(PID.TID 0000.0001)     15 lnoppppppol.........
(PID.TID 0000.0001)     14 .nponmllllmn........
(PID.TID 0000.0001)     13 ....ljhijkmo........
(PID.TID 0000.0001)     12 ......ghjlmors......
(PID.TID 0000.0001)     11 ........jmnpr.......
(PID.TID 0000.0001)     10 .......jlnpqrq......
(PID.TID 0000.0001)      9 .......noqsttts....w
(PID.TID 0000.0001)      8 .....jlnpsuvwwutu..x
(PID.TID 0000.0001)      7 ......j.rruwxyxxwxxy
(PID.TID 0000.0001)      6 .........ppruxyyzzzz
(PID.TID 0000.0001)      5 ..........ijoswyzzzz
(PID.TID 0000.0001)      4 ............iotwyzzz
(PID.TID 0000.0001)      3 ..........g.imquwyzz
(PID.TID 0000.0001)      2 .......-bef..knqtvxz
(PID.TID 0000.0001)      1 ........-cegijlosvy+
(PID.TID 0000.0001) // =======================================================
(PID.TID 0000.0001) // END OF FIELD                                          =
(PID.TID 0000.0001) // =======================================================
(PID.TID 0000.0001) 
(PID.TID 0000.0001)  MDSREADFIELD: opening file: xx_theta.0000000000.001.001.data
(PID.TID 0000.0001)  MDSREADFIELD: opening file: xx_salt.0000000000.001.001.data
(PID.TID 0000.0001) // =======================================================
(PID.TID 0000.0001) // Model current state
(PID.TID 0000.0001) // =======================================================
(PID.TID 0000.0001) 
(PID.TID 0000.0001)  MDSREADVECTOR: opening file: tapelev3_1_the_main_loop_gsnm1.it0000.001.001.data
(PID.TID 0000.0001)  MDS_READ_RL_VEC: irec =  00000001   00015456
(PID.TID 0000.0001)  MDSREADVECTOR: opening file: tapelev3_2_the_main_loop_gtnm1.it0000.001.001.data
(PID.TID 0000.0001)  MDS_READ_RL_VEC: irec =  00000001   00015456
(PID.TID 0000.0001)  MDSREADVECTOR: opening file: tapelev3_3_the_main_loop_gunm1.it0000.001.001.data
(PID.TID 0000.0001)  MDS_READ_RL_VEC: irec =  00000001   00015456
(PID.TID 0000.0001)  MDSREADVECTOR: opening file: tapelev3_4_the_main_loop_gvnm1.it0000.001.001.data
(PID.TID 0000.0001)  MDS_READ_RL_VEC: irec =  00000001   00015456
(PID.TID 0000.0001)  MDSREADVECTOR: opening file: tapelev3_5_the_main_loop_theta.it0000.001.001.data
(PID.TID 0000.0001)  MDS_READ_RL_VEC: irec =  00000001   00015456
(PID.TID 0000.0001)  MDSREADVECTOR: opening file: tapelev3_6_the_main_loop_salt.it0000.001.001.data
(PID.TID 0000.0001)  MDS_READ_RL_VEC: irec =  00000001   00015456
(PID.TID 0000.0001)  MDSREADVECTOR: opening file: tapelev3_7_the_main_loop_uvel.it0000.001.001.data
(PID.TID 0000.0001)  MDS_READ_RL_VEC: irec =  00000001   00015456
(PID.TID 0000.0001)  MDSREADVECTOR: opening file: tapelev3_8_the_main_loop_vvel.it0000.001.001.data
(PID.TID 0000.0001)  MDS_READ_RL_VEC: irec =  00000001   00015456
(PID.TID 0000.0001)  MDSREADVECTOR: opening file: tapelev3_9_the_main_loop_wvel.it0000.001.001.data
(PID.TID 0000.0001)  MDS_READ_RL_VEC: irec =  00000001   00015456
(PID.TID 0000.0001)  MDSREADVECTOR: opening file: tapelev3_10_the_main_loop_etan.it0000.001.001.data
(PID.TID 0000.0001)  MDS_READ_RL_VEC: irec =  00000001   00000672
(PID.TID 0000.0001)  MDSREADVECTOR: opening file: tapelev3_11_the_main_loop_gu.it0000.001.001.data
(PID.TID 0000.0001)  MDS_READ_RL_VEC: irec =  00000001   00015456
(PID.TID 0000.0001)  MDSREADVECTOR: opening file: tapelev3_12_the_main_loop_gv.it0000.001.001.data
(PID.TID 0000.0001)  MDS_READ_RL_VEC: irec =  00000001   00015456
(PID.TID 0000.0001)  MDSREADVECTOR: opening file: tapelev3_13_the_main_loop_uveld.it0000.001.001.data
(PID.TID 0000.0001)  MDS_READ_RL_VEC: irec =  00000001   00015456
(PID.TID 0000.0001)  MDSREADVECTOR: opening file: tapelev3_14_the_main_loop_vveld.it0000.001.001.data
(PID.TID 0000.0001)  MDS_READ_RL_VEC: irec =  00000001   00015456
(PID.TID 0000.0001)  MDSREADVECTOR: opening file: tapelev3_15_the_main_loop_etanm1.it0000.001.001.data
(PID.TID 0000.0001)  MDS_READ_RL_VEC: irec =  00000001   00000672
(PID.TID 0000.0001)  MDSREADVECTOR: opening file: tapelev3_16_the_main_loop_unm1.it0000.001.001.data
(PID.TID 0000.0001)  MDS_READ_RL_VEC: irec =  00000001   00015456
(PID.TID 0000.0001)  MDSREADVECTOR: opening file: tapelev3_17_the_main_loop_vnm1.it0000.001.001.data
(PID.TID 0000.0001)  MDS_READ_RL_VEC: irec =  00000001   00015456
(PID.TID 0000.0001)  MDSREADVECTOR: opening file: tapelev3_18_the_main_loop_gucd.it0000.001.001.data
(PID.TID 0000.0001)  MDS_READ_RL_VEC: irec =  00000001   00015456
(PID.TID 0000.0001)  MDSREADVECTOR: opening file: tapelev3_19_the_main_loop_gvcd.it0000.001.001.data
(PID.TID 0000.0001)  MDS_READ_RL_VEC: irec =  00000001   00015456
(PID.TID 0000.0001)  MDSREADVECTOR: opening file: tapelev3_20_the_main_loop_etah.it0000.001.001.data
(PID.TID 0000.0001)  MDS_READ_RL_VEC: irec =  00000001   00000672
(PID.TID 0000.0001)  MDSREADVECTOR: opening file: tapelev3_21_the_main_loop_hdivflow.it0000.001.001.data
(PID.TID 0000.0001)  MDS_READ_RL_VEC: irec =  00000001   00000672
(PID.TID 0000.0001)  MDSREADVECTOR: opening file: tapelev3_22_the_main_loop_aqh0.it0000.001.001.data
(PID.TID 0000.0001)  MDS_READ_RL_VEC: irec =  00000001   00000672
(PID.TID 0000.0001)  MDSREADVECTOR: opening file: tapelev3_23_the_main_loop_aqh1.it0000.001.001.data
(PID.TID 0000.0001)  MDS_READ_RL_VEC: irec =  00000001   00000672
(PID.TID 0000.0001)  MDSREADVECTOR: opening file: tapelev3_24_the_main_loop_atemp0.it0000.001.001.data
(PID.TID 0000.0001)  MDS_READ_RL_VEC: irec =  00000001   00000672
(PID.TID 0000.0001)  MDSREADVECTOR: opening file: tapelev3_25_the_main_loop_atemp1.it0000.001.001.data
(PID.TID 0000.0001)  MDS_READ_RL_VEC: irec =  00000001   00000672
(PID.TID 0000.0001)  MDSREADVECTOR: opening file: tapelev3_26_the_main_loop_precip0.it0000.001.001.data
(PID.TID 0000.0001)  MDS_READ_RL_VEC: irec =  00000001   00000672
(PID.TID 0000.0001)  MDSREADVECTOR: opening file: tapelev3_27_the_main_loop_precip1.it0000.001.001.data
(PID.TID 0000.0001)  MDS_READ_RL_VEC: irec =  00000001   00000672
(PID.TID 0000.0001)  MDSREADVECTOR: opening file: tapelev3_28_the_main_loop_lwflux0.it0000.001.001.data
(PID.TID 0000.0001)  MDS_READ_RL_VEC: irec =  00000001   00000672
(PID.TID 0000.0001)  MDSREADVECTOR: opening file: tapelev3_29_the_main_loop_lwflux1.it0000.001.001.data
(PID.TID 0000.0001)  MDS_READ_RL_VEC: irec =  00000001   00000672
(PID.TID 0000.0001)  MDSREADVECTOR: opening file: tapelev3_30_the_main_loop_swflux0.it0000.001.001.data
(PID.TID 0000.0001)  MDS_READ_RL_VEC: irec =  00000001   00000672
(PID.TID 0000.0001)  MDSREADVECTOR: opening file: tapelev3_31_the_main_loop_swflux1.it0000.001.001.data
(PID.TID 0000.0001)  MDS_READ_RL_VEC: irec =  00000001   00000672
(PID.TID 0000.0001)  MDSREADVECTOR: opening file: tapelev3_32_the_main_loop_evap.it0000.001.001.data
(PID.TID 0000.0001)  MDS_READ_RL_VEC: irec =  00000001   00000672
(PID.TID 0000.0001)  MDSREADVECTOR: opening file: tapelev3_33_the_main_loop_uwind0.it0000.001.001.data
(PID.TID 0000.0001)  MDS_READ_RL_VEC: irec =  00000001   00000672
(PID.TID 0000.0001)  MDSREADVECTOR: opening file: tapelev3_34_the_main_loop_uwind1.it0000.001.001.data
(PID.TID 0000.0001)  MDS_READ_RL_VEC: irec =  00000001   00000672
(PID.TID 0000.0001)  MDSREADVECTOR: opening file: tapelev3_35_the_main_loop_vwind0.it0000.001.001.data
(PID.TID 0000.0001)  MDS_READ_RL_VEC: irec =  00000001   00000672
(PID.TID 0000.0001)  MDSREADVECTOR: opening file: tapelev3_36_the_main_loop_vwind1.it0000.001.001.data
(PID.TID 0000.0001)  MDS_READ_RL_VEC: irec =  00000001   00000672
(PID.TID 0000.0001)  MDS_WRITE_RL_VEC: irec =  00000001   00015456
(PID.TID 0000.0001)  MDS_WRITE_RL_VEC: irec =  00000001   00015456
(PID.TID 0000.0001)  MDS_WRITE_RL_VEC: irec =  00000001   00015456
(PID.TID 0000.0001)  MDS_WRITE_RL_VEC: irec =  00000001   00015456
(PID.TID 0000.0001)  MDS_WRITE_RL_VEC: irec =  00000001   00015456
(PID.TID 0000.0001)  MDS_WRITE_RL_VEC: irec =  00000001   00015456
(PID.TID 0000.0001)  MDS_WRITE_RL_VEC: irec =  00000001   00015456
(PID.TID 0000.0001)  MDS_WRITE_RL_VEC: irec =  00000001   00015456
(PID.TID 0000.0001)  MDS_WRITE_RL_VEC: irec =  00000001   00015456
(PID.TID 0000.0001)  MDS_WRITE_RL_VEC: irec =  00000001   00000672
(PID.TID 0000.0001)  MDS_WRITE_RL_VEC: irec =  00000001   00015456
(PID.TID 0000.0001)  MDS_WRITE_RL_VEC: irec =  00000001   00015456
(PID.TID 0000.0001)  MDS_WRITE_RL_VEC: irec =  00000001   00015456
(PID.TID 0000.0001)  MDS_WRITE_RL_VEC: irec =  00000001   00015456
(PID.TID 0000.0001)  MDS_WRITE_RL_VEC: irec =  00000001   00000672
(PID.TID 0000.0001)  MDS_WRITE_RL_VEC: irec =  00000001   00015456
(PID.TID 0000.0001)  MDS_WRITE_RL_VEC: irec =  00000001   00015456
(PID.TID 0000.0001)  MDS_WRITE_RL_VEC: irec =  00000001   00015456
(PID.TID 0000.0001)  MDS_WRITE_RL_VEC: irec =  00000001   00015456
(PID.TID 0000.0001)  MDS_WRITE_RL_VEC: irec =  00000001   00000672
(PID.TID 0000.0001)  MDS_WRITE_RL_VEC: irec =  00000001   00000672
(PID.TID 0000.0001)  MDS_WRITE_RL_VEC: irec =  00000001   00000672
(PID.TID 0000.0001)  MDS_WRITE_RL_VEC: irec =  00000001   00000672
(PID.TID 0000.0001)  MDS_WRITE_RL_VEC: irec =  00000001   00000672
(PID.TID 0000.0001)  MDS_WRITE_RL_VEC: irec =  00000001   00000672
(PID.TID 0000.0001)  MDS_WRITE_RL_VEC: irec =  00000001   00000672
(PID.TID 0000.0001)  MDS_WRITE_RL_VEC: irec =  00000001   00000672
(PID.TID 0000.0001)  MDS_WRITE_RL_VEC: irec =  00000001   00000672
(PID.TID 0000.0001)  MDS_WRITE_RL_VEC: irec =  00000001   00000672
(PID.TID 0000.0001)  MDS_WRITE_RL_VEC: irec =  00000001   00000672
(PID.TID 0000.0001)  MDS_WRITE_RL_VEC: irec =  00000001   00000672
(PID.TID 0000.0001)  MDS_WRITE_RL_VEC: irec =  00000001   00000672
(PID.TID 0000.0001)  MDS_WRITE_RL_VEC: irec =  00000001   00000672
(PID.TID 0000.0001)  MDS_WRITE_RL_VEC: irec =  00000001   00000672
(PID.TID 0000.0001)  MDS_WRITE_RL_VEC: irec =  00000001   00000672
(PID.TID 0000.0001)  MDS_WRITE_RL_VEC: irec =  00000001   00000672
(PID.TID 0000.0001) 
(PID.TID 0000.0001)  exf_GetFFieldsRec: first, changed, fac:   T   F   0.50000000E+00
(PID.TID 0000.0001)  exf_GetFFieldsRec:      count0, count1:   1   2
(PID.TID 0000.0001) 
(PID.TID 0000.0001)  MDSREADFIELD: opening global file: u10m.labsea79
(PID.TID 0000.0001)  MDSREADFIELD: opening global file: u10m.labsea79
(PID.TID 0000.0001) 
(PID.TID 0000.0001)  exf_GetFFieldsRec: first, changed, fac:   T   F   0.50000000E+00
(PID.TID 0000.0001)  exf_GetFFieldsRec:      count0, count1:   1   2
(PID.TID 0000.0001) 
(PID.TID 0000.0001)  MDSREADFIELD: opening global file: v10m.labsea79
(PID.TID 0000.0001)  MDSREADFIELD: opening global file: v10m.labsea79
(PID.TID 0000.0001)  MDSREADFIELD: opening file: xx_uwind.0000000000.001.001.data
(PID.TID 0000.0001)  MDSREADFIELD: opening file: xx_uwind.0000000000.001.001.data
(PID.TID 0000.0001)  MDSREADFIELD: opening file: xx_vwind.0000000000.001.001.data
(PID.TID 0000.0001)  MDSREADFIELD: opening file: xx_vwind.0000000000.001.001.data
(PID.TID 0000.0001) 
(PID.TID 0000.0001)  exf_GetFFieldsRec: first, changed, fac:   T   F   0.50000000E+00
(PID.TID 0000.0001)  exf_GetFFieldsRec:      count0, count1:   1   2
(PID.TID 0000.0001) 
(PID.TID 0000.0001)  MDSREADFIELD: opening global file: tair.labsea1979
(PID.TID 0000.0001)  MDSREADFIELD: opening global file: tair.labsea1979
(PID.TID 0000.0001) 
(PID.TID 0000.0001)  exf_GetFFieldsRec: first, changed, fac:   T   F   0.50000000E+00
(PID.TID 0000.0001)  exf_GetFFieldsRec:      count0, count1:   1   2
(PID.TID 0000.0001) 
(PID.TID 0000.0001)  MDSREADFIELD: opening global file: qa.labsea1979
(PID.TID 0000.0001)  MDSREADFIELD: opening global file: qa.labsea1979
(PID.TID 0000.0001) 
(PID.TID 0000.0001)  exf_GetFFieldsRec: first, changed, fac:   T   F   0.50000000E+00
(PID.TID 0000.0001)  exf_GetFFieldsRec:      count0, count1:   1   2
(PID.TID 0000.0001) 
(PID.TID 0000.0001)  MDSREADFIELD: opening global file: prate.labsea1979
(PID.TID 0000.0001)  MDSREADFIELD: opening global file: prate.labsea1979
(PID.TID 0000.0001)  MDSREADFIELD: opening file: xx_atemp.0000000000.001.001.data
(PID.TID 0000.0001)  MDSREADFIELD: opening file: xx_atemp.0000000000.001.001.data
(PID.TID 0000.0001)  MDSREADFIELD: opening file: xx_aqh.0000000000.001.001.data
(PID.TID 0000.0001)  MDSREADFIELD: opening file: xx_aqh.0000000000.001.001.data
(PID.TID 0000.0001) 
(PID.TID 0000.0001)  exf_GetFFieldsRec: first, changed, fac:   T   F   0.50000000E+00
(PID.TID 0000.0001)  exf_GetFFieldsRec:      count0, count1:   1   2
(PID.TID 0000.0001) 
(PID.TID 0000.0001)  MDSREADFIELD: opening global file: fsh.labsea1979
(PID.TID 0000.0001)  MDSREADFIELD: opening global file: fsh.labsea1979
(PID.TID 0000.0001) 
(PID.TID 0000.0001)  exf_GetFFieldsRec: first, changed, fac:   T   F   0.50000000E+00
(PID.TID 0000.0001)  exf_GetFFieldsRec:      count0, count1:   1   2
(PID.TID 0000.0001) 
(PID.TID 0000.0001)  MDSREADFIELD: opening global file: flo.labsea1979
(PID.TID 0000.0001)  MDSREADFIELD: opening global file: flo.labsea1979
 cg2d: Sum(rhs),rhsMax =   1.95590071916385E-16  1.00807802167630E+00
(PID.TID 0000.0001)                    cg2d_init_res =    1.61521300655486E+00
(PID.TID 0000.0001)                       cg2d_iters =    47
(PID.TID 0000.0001)                         cg2d_res =    5.70138941994743E-14
(PID.TID 0000.0001) 
(PID.TID 0000.0001)  exf_GetFFieldsRec: first, changed, fac:   F   F   0.49863388E+00
(PID.TID 0000.0001)  exf_GetFFieldsRec:      count0, count1:   1   2
(PID.TID 0000.0001) 
(PID.TID 0000.0001) 
(PID.TID 0000.0001)  exf_GetFFieldsRec: first, changed, fac:   F   F   0.49863388E+00
(PID.TID 0000.0001)  exf_GetFFieldsRec:      count0, count1:   1   2
(PID.TID 0000.0001) 
(PID.TID 0000.0001)  MDSREADFIELD: opening file: xx_uwind.0000000000.001.001.data
(PID.TID 0000.0001)  MDSREADFIELD: opening file: xx_uwind.0000000000.001.001.data
(PID.TID 0000.0001)  MDSREADFIELD: opening file: xx_vwind.0000000000.001.001.data
(PID.TID 0000.0001)  MDSREADFIELD: opening file: xx_vwind.0000000000.001.001.data
(PID.TID 0000.0001) 
(PID.TID 0000.0001)  exf_GetFFieldsRec: first, changed, fac:   F   F   0.49863388E+00
(PID.TID 0000.0001)  exf_GetFFieldsRec:      count0, count1:   1   2
(PID.TID 0000.0001) 
(PID.TID 0000.0001) 
(PID.TID 0000.0001)  exf_GetFFieldsRec: first, changed, fac:   F   F   0.49863388E+00
(PID.TID 0000.0001)  exf_GetFFieldsRec:      count0, count1:   1   2
(PID.TID 0000.0001) 
(PID.TID 0000.0001) 
(PID.TID 0000.0001)  exf_GetFFieldsRec: first, changed, fac:   F   F   0.49863388E+00
(PID.TID 0000.0001)  exf_GetFFieldsRec:      count0, count1:   1   2
(PID.TID 0000.0001) 
(PID.TID 0000.0001)  MDSREADFIELD: opening file: xx_atemp.0000000000.001.001.data
(PID.TID 0000.0001)  MDSREADFIELD: opening file: xx_atemp.0000000000.001.001.data
(PID.TID 0000.0001)  MDSREADFIELD: opening file: xx_aqh.0000000000.001.001.data
(PID.TID 0000.0001)  MDSREADFIELD: opening file: xx_aqh.0000000000.001.001.data
(PID.TID 0000.0001) 
(PID.TID 0000.0001)  exf_GetFFieldsRec: first, changed, fac:   F   F   0.49863388E+00
(PID.TID 0000.0001)  exf_GetFFieldsRec:      count0, count1:   1   2
(PID.TID 0000.0001) 
(PID.TID 0000.0001) 
(PID.TID 0000.0001)  exf_GetFFieldsRec: first, changed, fac:   F   F   0.49863388E+00
(PID.TID 0000.0001)  exf_GetFFieldsRec:      count0, count1:   1   2
(PID.TID 0000.0001) 
 cg2d: Sum(rhs),rhsMax =   7.37474317724640E-16  1.23585471329616E+00
(PID.TID 0000.0001)                    cg2d_init_res =    3.48544561450945E-01
(PID.TID 0000.0001)                       cg2d_iters =    45
(PID.TID 0000.0001)                         cg2d_res =    6.49477568692734E-14
(PID.TID 0000.0001) 
(PID.TID 0000.0001)  exf_GetFFieldsRec: first, changed, fac:   F   F   0.49726776E+00
(PID.TID 0000.0001)  exf_GetFFieldsRec:      count0, count1:   1   2
(PID.TID 0000.0001) 
(PID.TID 0000.0001) 
(PID.TID 0000.0001)  exf_GetFFieldsRec: first, changed, fac:   F   F   0.49726776E+00
(PID.TID 0000.0001)  exf_GetFFieldsRec:      count0, count1:   1   2
(PID.TID 0000.0001) 
(PID.TID 0000.0001)  MDSREADFIELD: opening file: xx_uwind.0000000000.001.001.data
(PID.TID 0000.0001)  MDSREADFIELD: opening file: xx_uwind.0000000000.001.001.data
(PID.TID 0000.0001)  MDSREADFIELD: opening file: xx_vwind.0000000000.001.001.data
(PID.TID 0000.0001)  MDSREADFIELD: opening file: xx_vwind.0000000000.001.001.data
(PID.TID 0000.0001) 
(PID.TID 0000.0001)  exf_GetFFieldsRec: first, changed, fac:   F   F   0.49726776E+00
(PID.TID 0000.0001)  exf_GetFFieldsRec:      count0, count1:   1   2
(PID.TID 0000.0001) 
(PID.TID 0000.0001) 
(PID.TID 0000.0001)  exf_GetFFieldsRec: first, changed, fac:   F   F   0.49726776E+00
(PID.TID 0000.0001)  exf_GetFFieldsRec:      count0, count1:   1   2
(PID.TID 0000.0001) 
(PID.TID 0000.0001) 
(PID.TID 0000.0001)  exf_GetFFieldsRec: first, changed, fac:   F   F   0.49726776E+00
(PID.TID 0000.0001)  exf_GetFFieldsRec:      count0, count1:   1   2
(PID.TID 0000.0001) 
(PID.TID 0000.0001)  MDSREADFIELD: opening file: xx_atemp.0000000000.001.001.data
(PID.TID 0000.0001)  MDSREADFIELD: opening file: xx_atemp.0000000000.001.001.data
(PID.TID 0000.0001)  MDSREADFIELD: opening file: xx_aqh.0000000000.001.001.data
(PID.TID 0000.0001)  MDSREADFIELD: opening file: xx_aqh.0000000000.001.001.data
(PID.TID 0000.0001) 
(PID.TID 0000.0001)  exf_GetFFieldsRec: first, changed, fac:   F   F   0.49726776E+00
(PID.TID 0000.0001)  exf_GetFFieldsRec:      count0, count1:   1   2
(PID.TID 0000.0001) 
(PID.TID 0000.0001) 
(PID.TID 0000.0001)  exf_GetFFieldsRec: first, changed, fac:   F   F   0.49726776E+00
(PID.TID 0000.0001)  exf_GetFFieldsRec:      count0, count1:   1   2
(PID.TID 0000.0001) 
 cg2d: Sum(rhs),rhsMax =   6.20553955443803E-15  1.25438452343302E+00
(PID.TID 0000.0001)                    cg2d_init_res =    2.36078257971889E-01
(PID.TID 0000.0001)                       cg2d_iters =    45
(PID.TID 0000.0001)                         cg2d_res =    6.62546240702124E-14
(PID.TID 0000.0001) 
(PID.TID 0000.0001)  exf_GetFFieldsRec: first, changed, fac:   F   F   0.49590164E+00
(PID.TID 0000.0001)  exf_GetFFieldsRec:      count0, count1:   1   2
(PID.TID 0000.0001) 
(PID.TID 0000.0001) 
(PID.TID 0000.0001)  exf_GetFFieldsRec: first, changed, fac:   F   F   0.49590164E+00
(PID.TID 0000.0001)  exf_GetFFieldsRec:      count0, count1:   1   2
(PID.TID 0000.0001) 
(PID.TID 0000.0001)  MDSREADFIELD: opening file: xx_uwind.0000000000.001.001.data
(PID.TID 0000.0001)  MDSREADFIELD: opening file: xx_uwind.0000000000.001.001.data
(PID.TID 0000.0001)  MDSREADFIELD: opening file: xx_vwind.0000000000.001.001.data
(PID.TID 0000.0001)  MDSREADFIELD: opening file: xx_vwind.0000000000.001.001.data
(PID.TID 0000.0001) 
(PID.TID 0000.0001)  exf_GetFFieldsRec: first, changed, fac:   F   F   0.49590164E+00
(PID.TID 0000.0001)  exf_GetFFieldsRec:      count0, count1:   1   2
(PID.TID 0000.0001) 
(PID.TID 0000.0001) 
(PID.TID 0000.0001)  exf_GetFFieldsRec: first, changed, fac:   F   F   0.49590164E+00
(PID.TID 0000.0001)  exf_GetFFieldsRec:      count0, count1:   1   2
(PID.TID 0000.0001) 
(PID.TID 0000.0001) 
(PID.TID 0000.0001)  exf_GetFFieldsRec: first, changed, fac:   F   F   0.49590164E+00
(PID.TID 0000.0001)  exf_GetFFieldsRec:      count0, count1:   1   2
(PID.TID 0000.0001) 
(PID.TID 0000.0001)  MDSREADFIELD: opening file: xx_atemp.0000000000.001.001.data
(PID.TID 0000.0001)  MDSREADFIELD: opening file: xx_atemp.0000000000.001.001.data
(PID.TID 0000.0001)  MDSREADFIELD: opening file: xx_aqh.0000000000.001.001.data
(PID.TID 0000.0001)  MDSREADFIELD: opening file: xx_aqh.0000000000.001.001.data
(PID.TID 0000.0001) 
(PID.TID 0000.0001)  exf_GetFFieldsRec: first, changed, fac:   F   F   0.49590164E+00
(PID.TID 0000.0001)  exf_GetFFieldsRec:      count0, count1:   1   2
(PID.TID 0000.0001) 
(PID.TID 0000.0001) 
(PID.TID 0000.0001)  exf_GetFFieldsRec: first, changed, fac:   F   F   0.49590164E+00
(PID.TID 0000.0001)  exf_GetFFieldsRec:      count0, count1:   1   2
(PID.TID 0000.0001) 
 cg2d: Sum(rhs),rhsMax =   3.20620266447413E-15  1.25494322187447E+00
(PID.TID 0000.0001)                    cg2d_init_res =    1.82553144014713E-01
(PID.TID 0000.0001)                       cg2d_iters =    45
(PID.TID 0000.0001)                         cg2d_res =    5.12415163303431E-14
(PID.TID 0000.0001)  MDSREADVECTOR: opening file: tapelev3_1_the_main_loop_gsnm1.it0000.001.001.data
(PID.TID 0000.0001)  MDS_READ_RL_VEC: irec =  00000001   00015456
(PID.TID 0000.0001)  MDSREADVECTOR: opening file: tapelev3_2_the_main_loop_gtnm1.it0000.001.001.data
(PID.TID 0000.0001)  MDS_READ_RL_VEC: irec =  00000001   00015456
(PID.TID 0000.0001)  MDSREADVECTOR: opening file: tapelev3_3_the_main_loop_gunm1.it0000.001.001.data
(PID.TID 0000.0001)  MDS_READ_RL_VEC: irec =  00000001   00015456
(PID.TID 0000.0001)  MDSREADVECTOR: opening file: tapelev3_4_the_main_loop_gvnm1.it0000.001.001.data
(PID.TID 0000.0001)  MDS_READ_RL_VEC: irec =  00000001   00015456
(PID.TID 0000.0001)  MDSREADVECTOR: opening file: tapelev3_5_the_main_loop_theta.it0000.001.001.data
(PID.TID 0000.0001)  MDS_READ_RL_VEC: irec =  00000001   00015456
(PID.TID 0000.0001)  MDSREADVECTOR: opening file: tapelev3_6_the_main_loop_salt.it0000.001.001.data
(PID.TID 0000.0001)  MDS_READ_RL_VEC: irec =  00000001   00015456
(PID.TID 0000.0001)  MDSREADVECTOR: opening file: tapelev3_7_the_main_loop_uvel.it0000.001.001.data
(PID.TID 0000.0001)  MDS_READ_RL_VEC: irec =  00000001   00015456
(PID.TID 0000.0001)  MDSREADVECTOR: opening file: tapelev3_8_the_main_loop_vvel.it0000.001.001.data
(PID.TID 0000.0001)  MDS_READ_RL_VEC: irec =  00000001   00015456
(PID.TID 0000.0001)  MDSREADVECTOR: opening file: tapelev3_9_the_main_loop_wvel.it0000.001.001.data
(PID.TID 0000.0001)  MDS_READ_RL_VEC: irec =  00000001   00015456
(PID.TID 0000.0001)  MDSREADVECTOR: opening file: tapelev3_10_the_main_loop_etan.it0000.001.001.data
(PID.TID 0000.0001)  MDS_READ_RL_VEC: irec =  00000001   00000672
(PID.TID 0000.0001)  MDSREADVECTOR: opening file: tapelev3_11_the_main_loop_gu.it0000.001.001.data
(PID.TID 0000.0001)  MDS_READ_RL_VEC: irec =  00000001   00015456
(PID.TID 0000.0001)  MDSREADVECTOR: opening file: tapelev3_12_the_main_loop_gv.it0000.001.001.data
(PID.TID 0000.0001)  MDS_READ_RL_VEC: irec =  00000001   00015456
(PID.TID 0000.0001)  MDSREADVECTOR: opening file: tapelev3_13_the_main_loop_uveld.it0000.001.001.data
(PID.TID 0000.0001)  MDS_READ_RL_VEC: irec =  00000001   00015456
(PID.TID 0000.0001)  MDSREADVECTOR: opening file: tapelev3_14_the_main_loop_vveld.it0000.001.001.data
(PID.TID 0000.0001)  MDS_READ_RL_VEC: irec =  00000001   00015456
(PID.TID 0000.0001)  MDSREADVECTOR: opening file: tapelev3_15_the_main_loop_etanm1.it0000.001.001.data
(PID.TID 0000.0001)  MDS_READ_RL_VEC: irec =  00000001   00000672
(PID.TID 0000.0001)  MDSREADVECTOR: opening file: tapelev3_16_the_main_loop_unm1.it0000.001.001.data
(PID.TID 0000.0001)  MDS_READ_RL_VEC: irec =  00000001   00015456
(PID.TID 0000.0001)  MDSREADVECTOR: opening file: tapelev3_17_the_main_loop_vnm1.it0000.001.001.data
(PID.TID 0000.0001)  MDS_READ_RL_VEC: irec =  00000001   00015456
(PID.TID 0000.0001)  MDSREADVECTOR: opening file: tapelev3_18_the_main_loop_gucd.it0000.001.001.data
(PID.TID 0000.0001)  MDS_READ_RL_VEC: irec =  00000001   00015456
(PID.TID 0000.0001)  MDSREADVECTOR: opening file: tapelev3_19_the_main_loop_gvcd.it0000.001.001.data
(PID.TID 0000.0001)  MDS_READ_RL_VEC: irec =  00000001   00015456
(PID.TID 0000.0001)  MDSREADVECTOR: opening file: tapelev3_20_the_main_loop_etah.it0000.001.001.data
(PID.TID 0000.0001)  MDS_READ_RL_VEC: irec =  00000001   00000672
(PID.TID 0000.0001)  MDSREADVECTOR: opening file: tapelev3_21_the_main_loop_hdivflow.it0000.001.001.data
(PID.TID 0000.0001)  MDS_READ_RL_VEC: irec =  00000001   00000672
(PID.TID 0000.0001)  MDSREADVECTOR: opening file: tapelev3_22_the_main_loop_aqh0.it0000.001.001.data
(PID.TID 0000.0001)  MDS_READ_RL_VEC: irec =  00000001   00000672
(PID.TID 0000.0001)  MDSREADVECTOR: opening file: tapelev3_23_the_main_loop_aqh1.it0000.001.001.data
(PID.TID 0000.0001)  MDS_READ_RL_VEC: irec =  00000001   00000672
(PID.TID 0000.0001)  MDSREADVECTOR: opening file: tapelev3_24_the_main_loop_atemp0.it0000.001.001.data
(PID.TID 0000.0001)  MDS_READ_RL_VEC: irec =  00000001   00000672
(PID.TID 0000.0001)  MDSREADVECTOR: opening file: tapelev3_25_the_main_loop_atemp1.it0000.001.001.data
(PID.TID 0000.0001)  MDS_READ_RL_VEC: irec =  00000001   00000672
(PID.TID 0000.0001)  MDSREADVECTOR: opening file: tapelev3_26_the_main_loop_precip0.it0000.001.001.data
(PID.TID 0000.0001)  MDS_READ_RL_VEC: irec =  00000001   00000672
(PID.TID 0000.0001)  MDSREADVECTOR: opening file: tapelev3_27_the_main_loop_precip1.it0000.001.001.data
(PID.TID 0000.0001)  MDS_READ_RL_VEC: irec =  00000001   00000672
(PID.TID 0000.0001)  MDSREADVECTOR: opening file: tapelev3_28_the_main_loop_lwflux0.it0000.001.001.data
(PID.TID 0000.0001)  MDS_READ_RL_VEC: irec =  00000001   00000672
(PID.TID 0000.0001)  MDSREADVECTOR: opening file: tapelev3_29_the_main_loop_lwflux1.it0000.001.001.data
(PID.TID 0000.0001)  MDS_READ_RL_VEC: irec =  00000001   00000672
(PID.TID 0000.0001)  MDSREADVECTOR: opening file: tapelev3_30_the_main_loop_swflux0.it0000.001.001.data
(PID.TID 0000.0001)  MDS_READ_RL_VEC: irec =  00000001   00000672
(PID.TID 0000.0001)  MDSREADVECTOR: opening file: tapelev3_31_the_main_loop_swflux1.it0000.001.001.data
(PID.TID 0000.0001)  MDS_READ_RL_VEC: irec =  00000001   00000672
(PID.TID 0000.0001)  MDSREADVECTOR: opening file: tapelev3_32_the_main_loop_evap.it0000.001.001.data
(PID.TID 0000.0001)  MDS_READ_RL_VEC: irec =  00000001   00000672
(PID.TID 0000.0001)  MDSREADVECTOR: opening file: tapelev3_33_the_main_loop_uwind0.it0000.001.001.data
(PID.TID 0000.0001)  MDS_READ_RL_VEC: irec =  00000001   00000672
(PID.TID 0000.0001)  MDSREADVECTOR: opening file: tapelev3_34_the_main_loop_uwind1.it0000.001.001.data
(PID.TID 0000.0001)  MDS_READ_RL_VEC: irec =  00000001   00000672
(PID.TID 0000.0001)  MDSREADVECTOR: opening file: tapelev3_35_the_main_loop_vwind0.it0000.001.001.data
(PID.TID 0000.0001)  MDS_READ_RL_VEC: irec =  00000001   00000672
(PID.TID 0000.0001)  MDSREADVECTOR: opening file: tapelev3_36_the_main_loop_vwind1.it0000.001.001.data
(PID.TID 0000.0001)  MDS_READ_RL_VEC: irec =  00000001   00000672
(PID.TID 0000.0001) 
(PID.TID 0000.0001)  exf_GetFFieldsRec: first, changed, fac:   T   F   0.50000000E+00
(PID.TID 0000.0001)  exf_GetFFieldsRec:      count0, count1:   1   2
(PID.TID 0000.0001) 
(PID.TID 0000.0001)  MDSREADFIELD: opening global file: u10m.labsea79
(PID.TID 0000.0001)  MDSREADFIELD: opening global file: u10m.labsea79
(PID.TID 0000.0001) 
(PID.TID 0000.0001)  exf_GetFFieldsRec: first, changed, fac:   T   F   0.50000000E+00
(PID.TID 0000.0001)  exf_GetFFieldsRec:      count0, count1:   1   2
(PID.TID 0000.0001) 
(PID.TID 0000.0001)  MDSREADFIELD: opening global file: v10m.labsea79
(PID.TID 0000.0001)  MDSREADFIELD: opening global file: v10m.labsea79
(PID.TID 0000.0001)  MDSREADFIELD: opening file: xx_uwind.0000000000.001.001.data
(PID.TID 0000.0001)  MDSREADFIELD: opening file: xx_uwind.0000000000.001.001.data
(PID.TID 0000.0001)  MDSREADFIELD: opening file: xx_vwind.0000000000.001.001.data
(PID.TID 0000.0001)  MDSREADFIELD: opening file: xx_vwind.0000000000.001.001.data
(PID.TID 0000.0001) 
(PID.TID 0000.0001)  exf_GetFFieldsRec: first, changed, fac:   T   F   0.50000000E+00
(PID.TID 0000.0001)  exf_GetFFieldsRec:      count0, count1:   1   2
(PID.TID 0000.0001) 
(PID.TID 0000.0001)  MDSREADFIELD: opening global file: tair.labsea1979
(PID.TID 0000.0001)  MDSREADFIELD: opening global file: tair.labsea1979
(PID.TID 0000.0001) 
(PID.TID 0000.0001)  exf_GetFFieldsRec: first, changed, fac:   T   F   0.50000000E+00
(PID.TID 0000.0001)  exf_GetFFieldsRec:      count0, count1:   1   2
(PID.TID 0000.0001) 
(PID.TID 0000.0001)  MDSREADFIELD: opening global file: qa.labsea1979
(PID.TID 0000.0001)  MDSREADFIELD: opening global file: qa.labsea1979
(PID.TID 0000.0001) 
(PID.TID 0000.0001)  exf_GetFFieldsRec: first, changed, fac:   T   F   0.50000000E+00
(PID.TID 0000.0001)  exf_GetFFieldsRec:      count0, count1:   1   2
(PID.TID 0000.0001) 
(PID.TID 0000.0001)  MDSREADFIELD: opening global file: prate.labsea1979
(PID.TID 0000.0001)  MDSREADFIELD: opening global file: prate.labsea1979
(PID.TID 0000.0001)  MDSREADFIELD: opening file: xx_atemp.0000000000.001.001.data
(PID.TID 0000.0001)  MDSREADFIELD: opening file: xx_atemp.0000000000.001.001.data
(PID.TID 0000.0001)  MDSREADFIELD: opening file: xx_aqh.0000000000.001.001.data
(PID.TID 0000.0001)  MDSREADFIELD: opening file: xx_aqh.0000000000.001.001.data
(PID.TID 0000.0001) 
(PID.TID 0000.0001)  exf_GetFFieldsRec: first, changed, fac:   T   F   0.50000000E+00
(PID.TID 0000.0001)  exf_GetFFieldsRec:      count0, count1:   1   2
(PID.TID 0000.0001) 
(PID.TID 0000.0001)  MDSREADFIELD: opening global file: fsh.labsea1979
(PID.TID 0000.0001)  MDSREADFIELD: opening global file: fsh.labsea1979
(PID.TID 0000.0001) 
(PID.TID 0000.0001)  exf_GetFFieldsRec: first, changed, fac:   T   F   0.50000000E+00
(PID.TID 0000.0001)  exf_GetFFieldsRec:      count0, count1:   1   2
(PID.TID 0000.0001) 
(PID.TID 0000.0001)  MDSREADFIELD: opening global file: flo.labsea1979
(PID.TID 0000.0001)  MDSREADFIELD: opening global file: flo.labsea1979
 cg2d: Sum(rhs),rhsMax =   1.95590071916385E-16  1.00807802167630E+00
(PID.TID 0000.0001)                    cg2d_init_res =    1.61521300655486E+00
(PID.TID 0000.0001)                       cg2d_iters =    47
(PID.TID 0000.0001)                         cg2d_res =    5.70138941994743E-14
(PID.TID 0000.0001) 
(PID.TID 0000.0001)  exf_GetFFieldsRec: first, changed, fac:   F   F   0.49863388E+00
(PID.TID 0000.0001)  exf_GetFFieldsRec:      count0, count1:   1   2
(PID.TID 0000.0001) 
(PID.TID 0000.0001) 
(PID.TID 0000.0001)  exf_GetFFieldsRec: first, changed, fac:   F   F   0.49863388E+00
(PID.TID 0000.0001)  exf_GetFFieldsRec:      count0, count1:   1   2
(PID.TID 0000.0001) 
(PID.TID 0000.0001)  MDSREADFIELD: opening file: xx_uwind.0000000000.001.001.data
(PID.TID 0000.0001)  MDSREADFIELD: opening file: xx_uwind.0000000000.001.001.data
(PID.TID 0000.0001)  MDSREADFIELD: opening file: xx_vwind.0000000000.001.001.data
(PID.TID 0000.0001)  MDSREADFIELD: opening file: xx_vwind.0000000000.001.001.data
(PID.TID 0000.0001) 
(PID.TID 0000.0001)  exf_GetFFieldsRec: first, changed, fac:   F   F   0.49863388E+00
(PID.TID 0000.0001)  exf_GetFFieldsRec:      count0, count1:   1   2
(PID.TID 0000.0001) 
(PID.TID 0000.0001) 
(PID.TID 0000.0001)  exf_GetFFieldsRec: first, changed, fac:   F   F   0.49863388E+00
(PID.TID 0000.0001)  exf_GetFFieldsRec:      count0, count1:   1   2
(PID.TID 0000.0001) 
(PID.TID 0000.0001) 
(PID.TID 0000.0001)  exf_GetFFieldsRec: first, changed, fac:   F   F   0.49863388E+00
(PID.TID 0000.0001)  exf_GetFFieldsRec:      count0, count1:   1   2
(PID.TID 0000.0001) 
(PID.TID 0000.0001)  MDSREADFIELD: opening file: xx_atemp.0000000000.001.001.data
(PID.TID 0000.0001)  MDSREADFIELD: opening file: xx_atemp.0000000000.001.001.data
(PID.TID 0000.0001)  MDSREADFIELD: opening file: xx_aqh.0000000000.001.001.data
(PID.TID 0000.0001)  MDSREADFIELD: opening file: xx_aqh.0000000000.001.001.data
(PID.TID 0000.0001) 
(PID.TID 0000.0001)  exf_GetFFieldsRec: first, changed, fac:   F   F   0.49863388E+00
(PID.TID 0000.0001)  exf_GetFFieldsRec:      count0, count1:   1   2
(PID.TID 0000.0001) 
(PID.TID 0000.0001) 
(PID.TID 0000.0001)  exf_GetFFieldsRec: first, changed, fac:   F   F   0.49863388E+00
(PID.TID 0000.0001)  exf_GetFFieldsRec:      count0, count1:   1   2
(PID.TID 0000.0001) 
 cg2d: Sum(rhs),rhsMax =   7.37474317724640E-16  1.23585471329616E+00
(PID.TID 0000.0001)                    cg2d_init_res =    3.48544561450945E-01
(PID.TID 0000.0001)                       cg2d_iters =    45
(PID.TID 0000.0001)                         cg2d_res =    6.49477568692734E-14
(PID.TID 0000.0001) 
(PID.TID 0000.0001)  exf_GetFFieldsRec: first, changed, fac:   F   F   0.49726776E+00
(PID.TID 0000.0001)  exf_GetFFieldsRec:      count0, count1:   1   2
(PID.TID 0000.0001) 
(PID.TID 0000.0001) 
(PID.TID 0000.0001)  exf_GetFFieldsRec: first, changed, fac:   F   F   0.49726776E+00
(PID.TID 0000.0001)  exf_GetFFieldsRec:      count0, count1:   1   2
(PID.TID 0000.0001) 
(PID.TID 0000.0001)  MDSREADFIELD: opening file: xx_uwind.0000000000.001.001.data
(PID.TID 0000.0001)  MDSREADFIELD: opening file: xx_uwind.0000000000.001.001.data
(PID.TID 0000.0001)  MDSREADFIELD: opening file: xx_vwind.0000000000.001.001.data
(PID.TID 0000.0001)  MDSREADFIELD: opening file: xx_vwind.0000000000.001.001.data
(PID.TID 0000.0001) 
(PID.TID 0000.0001)  exf_GetFFieldsRec: first, changed, fac:   F   F   0.49726776E+00
(PID.TID 0000.0001)  exf_GetFFieldsRec:      count0, count1:   1   2
(PID.TID 0000.0001) 
(PID.TID 0000.0001) 
(PID.TID 0000.0001)  exf_GetFFieldsRec: first, changed, fac:   F   F   0.49726776E+00
(PID.TID 0000.0001)  exf_GetFFieldsRec:      count0, count1:   1   2
(PID.TID 0000.0001) 
(PID.TID 0000.0001) 
(PID.TID 0000.0001)  exf_GetFFieldsRec: first, changed, fac:   F   F   0.49726776E+00
(PID.TID 0000.0001)  exf_GetFFieldsRec:      count0, count1:   1   2
(PID.TID 0000.0001) 
(PID.TID 0000.0001)  MDSREADFIELD: opening file: xx_atemp.0000000000.001.001.data
(PID.TID 0000.0001)  MDSREADFIELD: opening file: xx_atemp.0000000000.001.001.data
(PID.TID 0000.0001)  MDSREADFIELD: opening file: xx_aqh.0000000000.001.001.data
(PID.TID 0000.0001)  MDSREADFIELD: opening file: xx_aqh.0000000000.001.001.data
(PID.TID 0000.0001) 
(PID.TID 0000.0001)  exf_GetFFieldsRec: first, changed, fac:   F   F   0.49726776E+00
(PID.TID 0000.0001)  exf_GetFFieldsRec:      count0, count1:   1   2
(PID.TID 0000.0001) 
(PID.TID 0000.0001) 
(PID.TID 0000.0001)  exf_GetFFieldsRec: first, changed, fac:   F   F   0.49726776E+00
(PID.TID 0000.0001)  exf_GetFFieldsRec:      count0, count1:   1   2
(PID.TID 0000.0001) 
 cg2d: Sum(rhs),rhsMax =   6.20553955443803E-15  1.25438452343302E+00
(PID.TID 0000.0001)                    cg2d_init_res =    2.36078257971889E-01
(PID.TID 0000.0001)                       cg2d_iters =    45
(PID.TID 0000.0001)                         cg2d_res =    6.62546240702124E-14
(PID.TID 0000.0001) 
(PID.TID 0000.0001)  exf_GetFFieldsRec: first, changed, fac:   F   F   0.49590164E+00
(PID.TID 0000.0001)  exf_GetFFieldsRec:      count0, count1:   1   2
(PID.TID 0000.0001) 
(PID.TID 0000.0001) 
(PID.TID 0000.0001)  exf_GetFFieldsRec: first, changed, fac:   F   F   0.49590164E+00
(PID.TID 0000.0001)  exf_GetFFieldsRec:      count0, count1:   1   2
(PID.TID 0000.0001) 
(PID.TID 0000.0001)  MDSREADFIELD: opening file: xx_uwind.0000000000.001.001.data
(PID.TID 0000.0001)  MDSREADFIELD: opening file: xx_uwind.0000000000.001.001.data
(PID.TID 0000.0001)  MDSREADFIELD: opening file: xx_vwind.0000000000.001.001.data
(PID.TID 0000.0001)  MDSREADFIELD: opening file: xx_vwind.0000000000.001.001.data
(PID.TID 0000.0001) 
(PID.TID 0000.0001)  exf_GetFFieldsRec: first, changed, fac:   F   F   0.49590164E+00
(PID.TID 0000.0001)  exf_GetFFieldsRec:      count0, count1:   1   2
(PID.TID 0000.0001) 
(PID.TID 0000.0001) 
(PID.TID 0000.0001)  exf_GetFFieldsRec: first, changed, fac:   F   F   0.49590164E+00
(PID.TID 0000.0001)  exf_GetFFieldsRec:      count0, count1:   1   2
(PID.TID 0000.0001) 
(PID.TID 0000.0001) 
(PID.TID 0000.0001)  exf_GetFFieldsRec: first, changed, fac:   F   F   0.49590164E+00
(PID.TID 0000.0001)  exf_GetFFieldsRec:      count0, count1:   1   2
(PID.TID 0000.0001) 
(PID.TID 0000.0001)  MDSREADFIELD: opening file: xx_atemp.0000000000.001.001.data
(PID.TID 0000.0001)  MDSREADFIELD: opening file: xx_atemp.0000000000.001.001.data
(PID.TID 0000.0001)  MDSREADFIELD: opening file: xx_aqh.0000000000.001.001.data
(PID.TID 0000.0001)  MDSREADFIELD: opening file: xx_aqh.0000000000.001.001.data
(PID.TID 0000.0001) 
(PID.TID 0000.0001)  exf_GetFFieldsRec: first, changed, fac:   F   F   0.49590164E+00
(PID.TID 0000.0001)  exf_GetFFieldsRec:      count0, count1:   1   2
(PID.TID 0000.0001) 
(PID.TID 0000.0001) 
(PID.TID 0000.0001)  exf_GetFFieldsRec: first, changed, fac:   F   F   0.49590164E+00
(PID.TID 0000.0001)  exf_GetFFieldsRec:      count0, count1:   1   2
(PID.TID 0000.0001) 
 cg2d: Sum(rhs),rhsMax =   3.20620266447413E-15  1.25494322187447E+00
(PID.TID 0000.0001)                    cg2d_init_res =    1.82553144014713E-01
(PID.TID 0000.0001)                       cg2d_iters =    45
(PID.TID 0000.0001)                         cg2d_res =    5.12415163303431E-14
(PID.TID 0000.0001)  MDSREADVECTOR: opening file: tapelev3_1_the_main_loop_gsnm1.it0000.001.001.data
(PID.TID 0000.0001)  MDS_READ_RL_VEC: irec =  00000001   00015456
(PID.TID 0000.0001)  MDSREADVECTOR: opening file: tapelev3_2_the_main_loop_gtnm1.it0000.001.001.data
(PID.TID 0000.0001)  MDS_READ_RL_VEC: irec =  00000001   00015456
(PID.TID 0000.0001)  MDSREADVECTOR: opening file: tapelev3_3_the_main_loop_gunm1.it0000.001.001.data
(PID.TID 0000.0001)  MDS_READ_RL_VEC: irec =  00000001   00015456
(PID.TID 0000.0001)  MDSREADVECTOR: opening file: tapelev3_4_the_main_loop_gvnm1.it0000.001.001.data
(PID.TID 0000.0001)  MDS_READ_RL_VEC: irec =  00000001   00015456
(PID.TID 0000.0001)  MDSREADVECTOR: opening file: tapelev3_5_the_main_loop_theta.it0000.001.001.data
(PID.TID 0000.0001)  MDS_READ_RL_VEC: irec =  00000001   00015456
(PID.TID 0000.0001)  MDSREADVECTOR: opening file: tapelev3_6_the_main_loop_salt.it0000.001.001.data
(PID.TID 0000.0001)  MDS_READ_RL_VEC: irec =  00000001   00015456
(PID.TID 0000.0001)  MDSREADVECTOR: opening file: tapelev3_7_the_main_loop_uvel.it0000.001.001.data
(PID.TID 0000.0001)  MDS_READ_RL_VEC: irec =  00000001   00015456
(PID.TID 0000.0001)  MDSREADVECTOR: opening file: tapelev3_8_the_main_loop_vvel.it0000.001.001.data
(PID.TID 0000.0001)  MDS_READ_RL_VEC: irec =  00000001   00015456
(PID.TID 0000.0001)  MDSREADVECTOR: opening file: tapelev3_9_the_main_loop_wvel.it0000.001.001.data
(PID.TID 0000.0001)  MDS_READ_RL_VEC: irec =  00000001   00015456
(PID.TID 0000.0001)  MDSREADVECTOR: opening file: tapelev3_10_the_main_loop_etan.it0000.001.001.data
(PID.TID 0000.0001)  MDS_READ_RL_VEC: irec =  00000001   00000672
(PID.TID 0000.0001)  MDSREADVECTOR: opening file: tapelev3_11_the_main_loop_gu.it0000.001.001.data
(PID.TID 0000.0001)  MDS_READ_RL_VEC: irec =  00000001   00015456
(PID.TID 0000.0001)  MDSREADVECTOR: opening file: tapelev3_12_the_main_loop_gv.it0000.001.001.data
(PID.TID 0000.0001)  MDS_READ_RL_VEC: irec =  00000001   00015456
(PID.TID 0000.0001)  MDSREADVECTOR: opening file: tapelev3_13_the_main_loop_uveld.it0000.001.001.data
(PID.TID 0000.0001)  MDS_READ_RL_VEC: irec =  00000001   00015456
(PID.TID 0000.0001)  MDSREADVECTOR: opening file: tapelev3_14_the_main_loop_vveld.it0000.001.001.data
(PID.TID 0000.0001)  MDS_READ_RL_VEC: irec =  00000001   00015456
(PID.TID 0000.0001)  MDSREADVECTOR: opening file: tapelev3_15_the_main_loop_etanm1.it0000.001.001.data
(PID.TID 0000.0001)  MDS_READ_RL_VEC: irec =  00000001   00000672
(PID.TID 0000.0001)  MDSREADVECTOR: opening file: tapelev3_16_the_main_loop_unm1.it0000.001.001.data
(PID.TID 0000.0001)  MDS_READ_RL_VEC: irec =  00000001   00015456
(PID.TID 0000.0001)  MDSREADVECTOR: opening file: tapelev3_17_the_main_loop_vnm1.it0000.001.001.data
(PID.TID 0000.0001)  MDS_READ_RL_VEC: irec =  00000001   00015456
(PID.TID 0000.0001)  MDSREADVECTOR: opening file: tapelev3_18_the_main_loop_gucd.it0000.001.001.data
(PID.TID 0000.0001)  MDS_READ_RL_VEC: irec =  00000001   00015456
(PID.TID 0000.0001)  MDSREADVECTOR: opening file: tapelev3_19_the_main_loop_gvcd.it0000.001.001.data
(PID.TID 0000.0001)  MDS_READ_RL_VEC: irec =  00000001   00015456
(PID.TID 0000.0001)  MDSREADVECTOR: opening file: tapelev3_20_the_main_loop_etah.it0000.001.001.data
(PID.TID 0000.0001)  MDS_READ_RL_VEC: irec =  00000001   00000672
(PID.TID 0000.0001)  MDSREADVECTOR: opening file: tapelev3_21_the_main_loop_hdivflow.it0000.001.001.data
(PID.TID 0000.0001)  MDS_READ_RL_VEC: irec =  00000001   00000672
(PID.TID 0000.0001)  MDSREADVECTOR: opening file: tapelev3_22_the_main_loop_aqh0.it0000.001.001.data
(PID.TID 0000.0001)  MDS_READ_RL_VEC: irec =  00000001   00000672
(PID.TID 0000.0001)  MDSREADVECTOR: opening file: tapelev3_23_the_main_loop_aqh1.it0000.001.001.data
(PID.TID 0000.0001)  MDS_READ_RL_VEC: irec =  00000001   00000672
(PID.TID 0000.0001)  MDSREADVECTOR: opening file: tapelev3_24_the_main_loop_atemp0.it0000.001.001.data
(PID.TID 0000.0001)  MDS_READ_RL_VEC: irec =  00000001   00000672
(PID.TID 0000.0001)  MDSREADVECTOR: opening file: tapelev3_25_the_main_loop_atemp1.it0000.001.001.data
(PID.TID 0000.0001)  MDS_READ_RL_VEC: irec =  00000001   00000672
(PID.TID 0000.0001)  MDSREADVECTOR: opening file: tapelev3_26_the_main_loop_precip0.it0000.001.001.data
(PID.TID 0000.0001)  MDS_READ_RL_VEC: irec =  00000001   00000672
(PID.TID 0000.0001)  MDSREADVECTOR: opening file: tapelev3_27_the_main_loop_precip1.it0000.001.001.data
(PID.TID 0000.0001)  MDS_READ_RL_VEC: irec =  00000001   00000672
(PID.TID 0000.0001)  MDSREADVECTOR: opening file: tapelev3_28_the_main_loop_lwflux0.it0000.001.001.data
(PID.TID 0000.0001)  MDS_READ_RL_VEC: irec =  00000001   00000672
(PID.TID 0000.0001)  MDSREADVECTOR: opening file: tapelev3_29_the_main_loop_lwflux1.it0000.001.001.data
(PID.TID 0000.0001)  MDS_READ_RL_VEC: irec =  00000001   00000672
(PID.TID 0000.0001)  MDSREADVECTOR: opening file: tapelev3_30_the_main_loop_swflux0.it0000.001.001.data
(PID.TID 0000.0001)  MDS_READ_RL_VEC: irec =  00000001   00000672
(PID.TID 0000.0001)  MDSREADVECTOR: opening file: tapelev3_31_the_main_loop_swflux1.it0000.001.001.data
(PID.TID 0000.0001)  MDS_READ_RL_VEC: irec =  00000001   00000672
(PID.TID 0000.0001)  MDSREADVECTOR: opening file: tapelev3_32_the_main_loop_evap.it0000.001.001.data
(PID.TID 0000.0001)  MDS_READ_RL_VEC: irec =  00000001   00000672
(PID.TID 0000.0001)  MDSREADVECTOR: opening file: tapelev3_33_the_main_loop_uwind0.it0000.001.001.data
(PID.TID 0000.0001)  MDS_READ_RL_VEC: irec =  00000001   00000672
(PID.TID 0000.0001)  MDSREADVECTOR: opening file: tapelev3_34_the_main_loop_uwind1.it0000.001.001.data
(PID.TID 0000.0001)  MDS_READ_RL_VEC: irec =  00000001   00000672
(PID.TID 0000.0001)  MDSREADVECTOR: opening file: tapelev3_35_the_main_loop_vwind0.it0000.001.001.data
(PID.TID 0000.0001)  MDS_READ_RL_VEC: irec =  00000001   00000672
(PID.TID 0000.0001)  MDSREADVECTOR: opening file: tapelev3_36_the_main_loop_vwind1.it0000.001.001.data
(PID.TID 0000.0001)  MDS_READ_RL_VEC: irec =  00000001   00000672
(PID.TID 0000.0001) 
(PID.TID 0000.0001)  exf_GetFFieldsRec: first, changed, fac:   T   F   0.50000000E+00
(PID.TID 0000.0001)  exf_GetFFieldsRec:      count0, count1:   1   2
(PID.TID 0000.0001) 
(PID.TID 0000.0001)  MDSREADFIELD: opening global file: u10m.labsea79
(PID.TID 0000.0001)  MDSREADFIELD: opening global file: u10m.labsea79
(PID.TID 0000.0001) 
(PID.TID 0000.0001)  exf_GetFFieldsRec: first, changed, fac:   T   F   0.50000000E+00
(PID.TID 0000.0001)  exf_GetFFieldsRec:      count0, count1:   1   2
(PID.TID 0000.0001) 
(PID.TID 0000.0001)  MDSREADFIELD: opening global file: v10m.labsea79
(PID.TID 0000.0001)  MDSREADFIELD: opening global file: v10m.labsea79
(PID.TID 0000.0001)  MDSREADFIELD: opening file: xx_uwind.0000000000.001.001.data
(PID.TID 0000.0001)  MDSREADFIELD: opening file: xx_uwind.0000000000.001.001.data
(PID.TID 0000.0001)  MDSREADFIELD: opening file: xx_vwind.0000000000.001.001.data
(PID.TID 0000.0001)  MDSREADFIELD: opening file: xx_vwind.0000000000.001.001.data
(PID.TID 0000.0001) 
(PID.TID 0000.0001)  exf_GetFFieldsRec: first, changed, fac:   T   F   0.50000000E+00
(PID.TID 0000.0001)  exf_GetFFieldsRec:      count0, count1:   1   2
(PID.TID 0000.0001) 
(PID.TID 0000.0001)  MDSREADFIELD: opening global file: tair.labsea1979
(PID.TID 0000.0001)  MDSREADFIELD: opening global file: tair.labsea1979
(PID.TID 0000.0001) 
(PID.TID 0000.0001)  exf_GetFFieldsRec: first, changed, fac:   T   F   0.50000000E+00
(PID.TID 0000.0001)  exf_GetFFieldsRec:      count0, count1:   1   2
(PID.TID 0000.0001) 
(PID.TID 0000.0001)  MDSREADFIELD: opening global file: qa.labsea1979
(PID.TID 0000.0001)  MDSREADFIELD: opening global file: qa.labsea1979
(PID.TID 0000.0001) 
(PID.TID 0000.0001)  exf_GetFFieldsRec: first, changed, fac:   T   F   0.50000000E+00
(PID.TID 0000.0001)  exf_GetFFieldsRec:      count0, count1:   1   2
(PID.TID 0000.0001) 
(PID.TID 0000.0001)  MDSREADFIELD: opening global file: prate.labsea1979
(PID.TID 0000.0001)  MDSREADFIELD: opening global file: prate.labsea1979
(PID.TID 0000.0001)  MDSREADFIELD: opening file: xx_atemp.0000000000.001.001.data
(PID.TID 0000.0001)  MDSREADFIELD: opening file: xx_atemp.0000000000.001.001.data
(PID.TID 0000.0001)  MDSREADFIELD: opening file: xx_aqh.0000000000.001.001.data
(PID.TID 0000.0001)  MDSREADFIELD: opening file: xx_aqh.0000000000.001.001.data
(PID.TID 0000.0001) 
(PID.TID 0000.0001)  exf_GetFFieldsRec: first, changed, fac:   T   F   0.50000000E+00
(PID.TID 0000.0001)  exf_GetFFieldsRec:      count0, count1:   1   2
(PID.TID 0000.0001) 
(PID.TID 0000.0001)  MDSREADFIELD: opening global file: fsh.labsea1979
(PID.TID 0000.0001)  MDSREADFIELD: opening global file: fsh.labsea1979
(PID.TID 0000.0001) 
(PID.TID 0000.0001)  exf_GetFFieldsRec: first, changed, fac:   T   F   0.50000000E+00
(PID.TID 0000.0001)  exf_GetFFieldsRec:      count0, count1:   1   2
(PID.TID 0000.0001) 
(PID.TID 0000.0001)  MDSREADFIELD: opening global file: flo.labsea1979
(PID.TID 0000.0001)  MDSREADFIELD: opening global file: flo.labsea1979
 cg2d: Sum(rhs),rhsMax =   1.95590071916385E-16  1.00807802167630E+00
(PID.TID 0000.0001)                    cg2d_init_res =    1.61521300655486E+00
(PID.TID 0000.0001)                       cg2d_iters =    47
(PID.TID 0000.0001)                         cg2d_res =    5.70138941994743E-14
(PID.TID 0000.0001) 
(PID.TID 0000.0001)  exf_GetFFieldsRec: first, changed, fac:   F   F   0.49863388E+00
(PID.TID 0000.0001)  exf_GetFFieldsRec:      count0, count1:   1   2
(PID.TID 0000.0001) 
(PID.TID 0000.0001) 
(PID.TID 0000.0001)  exf_GetFFieldsRec: first, changed, fac:   F   F   0.49863388E+00
(PID.TID 0000.0001)  exf_GetFFieldsRec:      count0, count1:   1   2
(PID.TID 0000.0001) 
(PID.TID 0000.0001)  MDSREADFIELD: opening file: xx_uwind.0000000000.001.001.data
(PID.TID 0000.0001)  MDSREADFIELD: opening file: xx_uwind.0000000000.001.001.data
(PID.TID 0000.0001)  MDSREADFIELD: opening file: xx_vwind.0000000000.001.001.data
(PID.TID 0000.0001)  MDSREADFIELD: opening file: xx_vwind.0000000000.001.001.data
(PID.TID 0000.0001) 
(PID.TID 0000.0001)  exf_GetFFieldsRec: first, changed, fac:   F   F   0.49863388E+00
(PID.TID 0000.0001)  exf_GetFFieldsRec:      count0, count1:   1   2
(PID.TID 0000.0001) 
(PID.TID 0000.0001) 
(PID.TID 0000.0001)  exf_GetFFieldsRec: first, changed, fac:   F   F   0.49863388E+00
(PID.TID 0000.0001)  exf_GetFFieldsRec:      count0, count1:   1   2
(PID.TID 0000.0001) 
(PID.TID 0000.0001) 
(PID.TID 0000.0001)  exf_GetFFieldsRec: first, changed, fac:   F   F   0.49863388E+00
(PID.TID 0000.0001)  exf_GetFFieldsRec:      count0, count1:   1   2
(PID.TID 0000.0001) 
(PID.TID 0000.0001)  MDSREADFIELD: opening file: xx_atemp.0000000000.001.001.data
(PID.TID 0000.0001)  MDSREADFIELD: opening file: xx_atemp.0000000000.001.001.data
(PID.TID 0000.0001)  MDSREADFIELD: opening file: xx_aqh.0000000000.001.001.data
(PID.TID 0000.0001)  MDSREADFIELD: opening file: xx_aqh.0000000000.001.001.data
(PID.TID 0000.0001) 
(PID.TID 0000.0001)  exf_GetFFieldsRec: first, changed, fac:   F   F   0.49863388E+00
(PID.TID 0000.0001)  exf_GetFFieldsRec:      count0, count1:   1   2
(PID.TID 0000.0001) 
(PID.TID 0000.0001) 
(PID.TID 0000.0001)  exf_GetFFieldsRec: first, changed, fac:   F   F   0.49863388E+00
(PID.TID 0000.0001)  exf_GetFFieldsRec:      count0, count1:   1   2
(PID.TID 0000.0001) 
 cg2d: Sum(rhs),rhsMax =   7.37474317724640E-16  1.23585471329616E+00
(PID.TID 0000.0001)                    cg2d_init_res =    3.48544561450945E-01
(PID.TID 0000.0001)                       cg2d_iters =    45
(PID.TID 0000.0001)                         cg2d_res =    6.49477568692734E-14
(PID.TID 0000.0001) 
(PID.TID 0000.0001)  exf_GetFFieldsRec: first, changed, fac:   F   F   0.49726776E+00
(PID.TID 0000.0001)  exf_GetFFieldsRec:      count0, count1:   1   2
(PID.TID 0000.0001) 
(PID.TID 0000.0001) 
(PID.TID 0000.0001)  exf_GetFFieldsRec: first, changed, fac:   F   F   0.49726776E+00
(PID.TID 0000.0001)  exf_GetFFieldsRec:      count0, count1:   1   2
(PID.TID 0000.0001) 
(PID.TID 0000.0001)  MDSREADFIELD: opening file: xx_uwind.0000000000.001.001.data
(PID.TID 0000.0001)  MDSREADFIELD: opening file: xx_uwind.0000000000.001.001.data
(PID.TID 0000.0001)  MDSREADFIELD: opening file: xx_vwind.0000000000.001.001.data
(PID.TID 0000.0001)  MDSREADFIELD: opening file: xx_vwind.0000000000.001.001.data
(PID.TID 0000.0001) 
(PID.TID 0000.0001)  exf_GetFFieldsRec: first, changed, fac:   F   F   0.49726776E+00
(PID.TID 0000.0001)  exf_GetFFieldsRec:      count0, count1:   1   2
(PID.TID 0000.0001) 
(PID.TID 0000.0001) 
(PID.TID 0000.0001)  exf_GetFFieldsRec: first, changed, fac:   F   F   0.49726776E+00
(PID.TID 0000.0001)  exf_GetFFieldsRec:      count0, count1:   1   2
(PID.TID 0000.0001) 
(PID.TID 0000.0001) 
(PID.TID 0000.0001)  exf_GetFFieldsRec: first, changed, fac:   F   F   0.49726776E+00
(PID.TID 0000.0001)  exf_GetFFieldsRec:      count0, count1:   1   2
(PID.TID 0000.0001) 
(PID.TID 0000.0001)  MDSREADFIELD: opening file: xx_atemp.0000000000.001.001.data
(PID.TID 0000.0001)  MDSREADFIELD: opening file: xx_atemp.0000000000.001.001.data
(PID.TID 0000.0001)  MDSREADFIELD: opening file: xx_aqh.0000000000.001.001.data
(PID.TID 0000.0001)  MDSREADFIELD: opening file: xx_aqh.0000000000.001.001.data
(PID.TID 0000.0001) 
(PID.TID 0000.0001)  exf_GetFFieldsRec: first, changed, fac:   F   F   0.49726776E+00
(PID.TID 0000.0001)  exf_GetFFieldsRec:      count0, count1:   1   2
(PID.TID 0000.0001) 
(PID.TID 0000.0001) 
(PID.TID 0000.0001)  exf_GetFFieldsRec: first, changed, fac:   F   F   0.49726776E+00
(PID.TID 0000.0001)  exf_GetFFieldsRec:      count0, count1:   1   2
(PID.TID 0000.0001) 
 cg2d: Sum(rhs),rhsMax =   6.20553955443803E-15  1.25438452343302E+00
(PID.TID 0000.0001)                    cg2d_init_res =    2.36078257971889E-01
(PID.TID 0000.0001)                       cg2d_iters =    45
(PID.TID 0000.0001)                         cg2d_res =    6.62546240702124E-14
(PID.TID 0000.0001) 
(PID.TID 0000.0001)  exf_GetFFieldsRec: first, changed, fac:   F   F   0.49590164E+00
(PID.TID 0000.0001)  exf_GetFFieldsRec:      count0, count1:   1   2
(PID.TID 0000.0001) 
(PID.TID 0000.0001) 
(PID.TID 0000.0001)  exf_GetFFieldsRec: first, changed, fac:   F   F   0.49590164E+00
(PID.TID 0000.0001)  exf_GetFFieldsRec:      count0, count1:   1   2
(PID.TID 0000.0001) 
(PID.TID 0000.0001)  MDSREADFIELD: opening file: xx_uwind.0000000000.001.001.data
(PID.TID 0000.0001)  MDSREADFIELD: opening file: xx_uwind.0000000000.001.001.data
(PID.TID 0000.0001)  MDSREADFIELD: opening file: xx_vwind.0000000000.001.001.data
(PID.TID 0000.0001)  MDSREADFIELD: opening file: xx_vwind.0000000000.001.001.data
(PID.TID 0000.0001) 
(PID.TID 0000.0001)  exf_GetFFieldsRec: first, changed, fac:   F   F   0.49590164E+00
(PID.TID 0000.0001)  exf_GetFFieldsRec:      count0, count1:   1   2
(PID.TID 0000.0001) 
(PID.TID 0000.0001) 
(PID.TID 0000.0001)  exf_GetFFieldsRec: first, changed, fac:   F   F   0.49590164E+00
(PID.TID 0000.0001)  exf_GetFFieldsRec:      count0, count1:   1   2
(PID.TID 0000.0001) 
(PID.TID 0000.0001) 
(PID.TID 0000.0001)  exf_GetFFieldsRec: first, changed, fac:   F   F   0.49590164E+00
(PID.TID 0000.0001)  exf_GetFFieldsRec:      count0, count1:   1   2
(PID.TID 0000.0001) 
(PID.TID 0000.0001)  MDSREADFIELD: opening file: xx_atemp.0000000000.001.001.data
(PID.TID 0000.0001)  MDSREADFIELD: opening file: xx_atemp.0000000000.001.001.data
(PID.TID 0000.0001)  MDSREADFIELD: opening file: xx_aqh.0000000000.001.001.data
(PID.TID 0000.0001)  MDSREADFIELD: opening file: xx_aqh.0000000000.001.001.data
(PID.TID 0000.0001) 
(PID.TID 0000.0001)  exf_GetFFieldsRec: first, changed, fac:   F   F   0.49590164E+00
(PID.TID 0000.0001)  exf_GetFFieldsRec:      count0, count1:   1   2
(PID.TID 0000.0001) 
(PID.TID 0000.0001) 
(PID.TID 0000.0001)  exf_GetFFieldsRec: first, changed, fac:   F   F   0.49590164E+00
(PID.TID 0000.0001)  exf_GetFFieldsRec:      count0, count1:   1   2
(PID.TID 0000.0001) 
 cg2d: Sum(rhs),rhsMax =   3.20620266447413E-15  1.25494322187447E+00
(PID.TID 0000.0001)                    cg2d_init_res =    1.82553144014713E-01
(PID.TID 0000.0001)                       cg2d_iters =    45
(PID.TID 0000.0001)                         cg2d_res =    5.12415163303431E-14
(PID.TID 0000.0001)  MDSREADVECTOR: opening file: tapelev3_1_the_main_loop_gsnm1.it0000.001.001.data
(PID.TID 0000.0001)  MDS_READ_RL_VEC: irec =  00000001   00015456
(PID.TID 0000.0001)  MDSREADVECTOR: opening file: tapelev3_2_the_main_loop_gtnm1.it0000.001.001.data
(PID.TID 0000.0001)  MDS_READ_RL_VEC: irec =  00000001   00015456
(PID.TID 0000.0001)  MDSREADVECTOR: opening file: tapelev3_3_the_main_loop_gunm1.it0000.001.001.data
(PID.TID 0000.0001)  MDS_READ_RL_VEC: irec =  00000001   00015456
(PID.TID 0000.0001)  MDSREADVECTOR: opening file: tapelev3_4_the_main_loop_gvnm1.it0000.001.001.data
(PID.TID 0000.0001)  MDS_READ_RL_VEC: irec =  00000001   00015456
(PID.TID 0000.0001)  MDSREADVECTOR: opening file: tapelev3_5_the_main_loop_theta.it0000.001.001.data
(PID.TID 0000.0001)  MDS_READ_RL_VEC: irec =  00000001   00015456
(PID.TID 0000.0001)  MDSREADVECTOR: opening file: tapelev3_6_the_main_loop_salt.it0000.001.001.data
(PID.TID 0000.0001)  MDS_READ_RL_VEC: irec =  00000001   00015456
(PID.TID 0000.0001)  MDSREADVECTOR: opening file: tapelev3_7_the_main_loop_uvel.it0000.001.001.data
(PID.TID 0000.0001)  MDS_READ_RL_VEC: irec =  00000001   00015456
(PID.TID 0000.0001)  MDSREADVECTOR: opening file: tapelev3_8_the_main_loop_vvel.it0000.001.001.data
(PID.TID 0000.0001)  MDS_READ_RL_VEC: irec =  00000001   00015456
(PID.TID 0000.0001)  MDSREADVECTOR: opening file: tapelev3_9_the_main_loop_wvel.it0000.001.001.data
(PID.TID 0000.0001)  MDS_READ_RL_VEC: irec =  00000001   00015456
(PID.TID 0000.0001)  MDSREADVECTOR: opening file: tapelev3_10_the_main_loop_etan.it0000.001.001.data
(PID.TID 0000.0001)  MDS_READ_RL_VEC: irec =  00000001   00000672
(PID.TID 0000.0001)  MDSREADVECTOR: opening file: tapelev3_11_the_main_loop_gu.it0000.001.001.data
(PID.TID 0000.0001)  MDS_READ_RL_VEC: irec =  00000001   00015456
(PID.TID 0000.0001)  MDSREADVECTOR: opening file: tapelev3_12_the_main_loop_gv.it0000.001.001.data
(PID.TID 0000.0001)  MDS_READ_RL_VEC: irec =  00000001   00015456
(PID.TID 0000.0001)  MDSREADVECTOR: opening file: tapelev3_13_the_main_loop_uveld.it0000.001.001.data
(PID.TID 0000.0001)  MDS_READ_RL_VEC: irec =  00000001   00015456
(PID.TID 0000.0001)  MDSREADVECTOR: opening file: tapelev3_14_the_main_loop_vveld.it0000.001.001.data
(PID.TID 0000.0001)  MDS_READ_RL_VEC: irec =  00000001   00015456
(PID.TID 0000.0001)  MDSREADVECTOR: opening file: tapelev3_15_the_main_loop_etanm1.it0000.001.001.data
(PID.TID 0000.0001)  MDS_READ_RL_VEC: irec =  00000001   00000672
(PID.TID 0000.0001)  MDSREADVECTOR: opening file: tapelev3_16_the_main_loop_unm1.it0000.001.001.data
(PID.TID 0000.0001)  MDS_READ_RL_VEC: irec =  00000001   00015456
(PID.TID 0000.0001)  MDSREADVECTOR: opening file: tapelev3_17_the_main_loop_vnm1.it0000.001.001.data
(PID.TID 0000.0001)  MDS_READ_RL_VEC: irec =  00000001   00015456
(PID.TID 0000.0001)  MDSREADVECTOR: opening file: tapelev3_18_the_main_loop_gucd.it0000.001.001.data
(PID.TID 0000.0001)  MDS_READ_RL_VEC: irec =  00000001   00015456
(PID.TID 0000.0001)  MDSREADVECTOR: opening file: tapelev3_19_the_main_loop_gvcd.it0000.001.001.data
(PID.TID 0000.0001)  MDS_READ_RL_VEC: irec =  00000001   00015456
(PID.TID 0000.0001)  MDSREADVECTOR: opening file: tapelev3_20_the_main_loop_etah.it0000.001.001.data
(PID.TID 0000.0001)  MDS_READ_RL_VEC: irec =  00000001   00000672
(PID.TID 0000.0001)  MDSREADVECTOR: opening file: tapelev3_21_the_main_loop_hdivflow.it0000.001.001.data
(PID.TID 0000.0001)  MDS_READ_RL_VEC: irec =  00000001   00000672
(PID.TID 0000.0001)  MDSREADVECTOR: opening file: tapelev3_22_the_main_loop_aqh0.it0000.001.001.data
(PID.TID 0000.0001)  MDS_READ_RL_VEC: irec =  00000001   00000672
(PID.TID 0000.0001)  MDSREADVECTOR: opening file: tapelev3_23_the_main_loop_aqh1.it0000.001.001.data
(PID.TID 0000.0001)  MDS_READ_RL_VEC: irec =  00000001   00000672
(PID.TID 0000.0001)  MDSREADVECTOR: opening file: tapelev3_24_the_main_loop_atemp0.it0000.001.001.data
(PID.TID 0000.0001)  MDS_READ_RL_VEC: irec =  00000001   00000672
(PID.TID 0000.0001)  MDSREADVECTOR: opening file: tapelev3_25_the_main_loop_atemp1.it0000.001.001.data
(PID.TID 0000.0001)  MDS_READ_RL_VEC: irec =  00000001   00000672
(PID.TID 0000.0001)  MDSREADVECTOR: opening file: tapelev3_26_the_main_loop_precip0.it0000.001.001.data
(PID.TID 0000.0001)  MDS_READ_RL_VEC: irec =  00000001   00000672
(PID.TID 0000.0001)  MDSREADVECTOR: opening file: tapelev3_27_the_main_loop_precip1.it0000.001.001.data
(PID.TID 0000.0001)  MDS_READ_RL_VEC: irec =  00000001   00000672
(PID.TID 0000.0001)  MDSREADVECTOR: opening file: tapelev3_28_the_main_loop_lwflux0.it0000.001.001.data
(PID.TID 0000.0001)  MDS_READ_RL_VEC: irec =  00000001   00000672
(PID.TID 0000.0001)  MDSREADVECTOR: opening file: tapelev3_29_the_main_loop_lwflux1.it0000.001.001.data
(PID.TID 0000.0001)  MDS_READ_RL_VEC: irec =  00000001   00000672
(PID.TID 0000.0001)  MDSREADVECTOR: opening file: tapelev3_30_the_main_loop_swflux0.it0000.001.001.data
(PID.TID 0000.0001)  MDS_READ_RL_VEC: irec =  00000001   00000672
(PID.TID 0000.0001)  MDSREADVECTOR: opening file: tapelev3_31_the_main_loop_swflux1.it0000.001.001.data
(PID.TID 0000.0001)  MDS_READ_RL_VEC: irec =  00000001   00000672
(PID.TID 0000.0001)  MDSREADVECTOR: opening file: tapelev3_32_the_main_loop_evap.it0000.001.001.data
(PID.TID 0000.0001)  MDS_READ_RL_VEC: irec =  00000001   00000672
(PID.TID 0000.0001)  MDSREADVECTOR: opening file: tapelev3_33_the_main_loop_uwind0.it0000.001.001.data
(PID.TID 0000.0001)  MDS_READ_RL_VEC: irec =  00000001   00000672
(PID.TID 0000.0001)  MDSREADVECTOR: opening file: tapelev3_34_the_main_loop_uwind1.it0000.001.001.data
(PID.TID 0000.0001)  MDS_READ_RL_VEC: irec =  00000001   00000672
(PID.TID 0000.0001)  MDSREADVECTOR: opening file: tapelev3_35_the_main_loop_vwind0.it0000.001.001.data
(PID.TID 0000.0001)  MDS_READ_RL_VEC: irec =  00000001   00000672
(PID.TID 0000.0001)  MDSREADVECTOR: opening file: tapelev3_36_the_main_loop_vwind1.it0000.001.001.data
(PID.TID 0000.0001)  MDS_READ_RL_VEC: irec =  00000001   00000672
(PID.TID 0000.0001) 
(PID.TID 0000.0001)  exf_GetFFieldsRec: first, changed, fac:   T   F   0.50000000E+00
(PID.TID 0000.0001)  exf_GetFFieldsRec:      count0, count1:   1   2
(PID.TID 0000.0001) 
(PID.TID 0000.0001)  MDSREADFIELD: opening global file: u10m.labsea79
(PID.TID 0000.0001)  MDSREADFIELD: opening global file: u10m.labsea79
(PID.TID 0000.0001) 
(PID.TID 0000.0001)  exf_GetFFieldsRec: first, changed, fac:   T   F   0.50000000E+00
(PID.TID 0000.0001)  exf_GetFFieldsRec:      count0, count1:   1   2
(PID.TID 0000.0001) 
(PID.TID 0000.0001)  MDSREADFIELD: opening global file: v10m.labsea79
(PID.TID 0000.0001)  MDSREADFIELD: opening global file: v10m.labsea79
(PID.TID 0000.0001)  MDSREADFIELD: opening file: xx_uwind.0000000000.001.001.data
(PID.TID 0000.0001)  MDSREADFIELD: opening file: xx_uwind.0000000000.001.001.data
(PID.TID 0000.0001)  MDSREADFIELD: opening file: xx_vwind.0000000000.001.001.data
(PID.TID 0000.0001)  MDSREADFIELD: opening file: xx_vwind.0000000000.001.001.data
(PID.TID 0000.0001) 
(PID.TID 0000.0001)  exf_GetFFieldsRec: first, changed, fac:   T   F   0.50000000E+00
(PID.TID 0000.0001)  exf_GetFFieldsRec:      count0, count1:   1   2
(PID.TID 0000.0001) 
(PID.TID 0000.0001)  MDSREADFIELD: opening global file: tair.labsea1979
(PID.TID 0000.0001)  MDSREADFIELD: opening global file: tair.labsea1979
(PID.TID 0000.0001) 
(PID.TID 0000.0001)  exf_GetFFieldsRec: first, changed, fac:   T   F   0.50000000E+00
(PID.TID 0000.0001)  exf_GetFFieldsRec:      count0, count1:   1   2
(PID.TID 0000.0001) 
(PID.TID 0000.0001)  MDSREADFIELD: opening global file: qa.labsea1979
(PID.TID 0000.0001)  MDSREADFIELD: opening global file: qa.labsea1979
(PID.TID 0000.0001) 
(PID.TID 0000.0001)  exf_GetFFieldsRec: first, changed, fac:   T   F   0.50000000E+00
(PID.TID 0000.0001)  exf_GetFFieldsRec:      count0, count1:   1   2
(PID.TID 0000.0001) 
(PID.TID 0000.0001)  MDSREADFIELD: opening global file: prate.labsea1979
(PID.TID 0000.0001)  MDSREADFIELD: opening global file: prate.labsea1979
(PID.TID 0000.0001)  MDSREADFIELD: opening file: xx_atemp.0000000000.001.001.data
(PID.TID 0000.0001)  MDSREADFIELD: opening file: xx_atemp.0000000000.001.001.data
(PID.TID 0000.0001)  MDSREADFIELD: opening file: xx_aqh.0000000000.001.001.data
(PID.TID 0000.0001)  MDSREADFIELD: opening file: xx_aqh.0000000000.001.001.data
(PID.TID 0000.0001) 
(PID.TID 0000.0001)  exf_GetFFieldsRec: first, changed, fac:   T   F   0.50000000E+00
(PID.TID 0000.0001)  exf_GetFFieldsRec:      count0, count1:   1   2
(PID.TID 0000.0001) 
(PID.TID 0000.0001)  MDSREADFIELD: opening global file: fsh.labsea1979
(PID.TID 0000.0001)  MDSREADFIELD: opening global file: fsh.labsea1979
(PID.TID 0000.0001) 
(PID.TID 0000.0001)  exf_GetFFieldsRec: first, changed, fac:   T   F   0.50000000E+00
(PID.TID 0000.0001)  exf_GetFFieldsRec:      count0, count1:   1   2
(PID.TID 0000.0001) 
(PID.TID 0000.0001)  MDSREADFIELD: opening global file: flo.labsea1979
(PID.TID 0000.0001)  MDSREADFIELD: opening global file: flo.labsea1979
 cg2d: Sum(rhs),rhsMax =   1.95590071916385E-16  1.00807802167630E+00
(PID.TID 0000.0001)                    cg2d_init_res =    1.61521300655486E+00
(PID.TID 0000.0001)                       cg2d_iters =    47
(PID.TID 0000.0001)                         cg2d_res =    5.70138941994743E-14
(PID.TID 0000.0001) 
(PID.TID 0000.0001)  exf_GetFFieldsRec: first, changed, fac:   F   F   0.49863388E+00
(PID.TID 0000.0001)  exf_GetFFieldsRec:      count0, count1:   1   2
(PID.TID 0000.0001) 
(PID.TID 0000.0001) 
(PID.TID 0000.0001)  exf_GetFFieldsRec: first, changed, fac:   F   F   0.49863388E+00
(PID.TID 0000.0001)  exf_GetFFieldsRec:      count0, count1:   1   2
(PID.TID 0000.0001) 
(PID.TID 0000.0001)  MDSREADFIELD: opening file: xx_uwind.0000000000.001.001.data
(PID.TID 0000.0001)  MDSREADFIELD: opening file: xx_uwind.0000000000.001.001.data
(PID.TID 0000.0001)  MDSREADFIELD: opening file: xx_vwind.0000000000.001.001.data
(PID.TID 0000.0001)  MDSREADFIELD: opening file: xx_vwind.0000000000.001.001.data
(PID.TID 0000.0001) 
(PID.TID 0000.0001)  exf_GetFFieldsRec: first, changed, fac:   F   F   0.49863388E+00
(PID.TID 0000.0001)  exf_GetFFieldsRec:      count0, count1:   1   2
(PID.TID 0000.0001) 
(PID.TID 0000.0001) 
(PID.TID 0000.0001)  exf_GetFFieldsRec: first, changed, fac:   F   F   0.49863388E+00
(PID.TID 0000.0001)  exf_GetFFieldsRec:      count0, count1:   1   2
(PID.TID 0000.0001) 
(PID.TID 0000.0001) 
(PID.TID 0000.0001)  exf_GetFFieldsRec: first, changed, fac:   F   F   0.49863388E+00
(PID.TID 0000.0001)  exf_GetFFieldsRec:      count0, count1:   1   2
(PID.TID 0000.0001) 
(PID.TID 0000.0001)  MDSREADFIELD: opening file: xx_atemp.0000000000.001.001.data
(PID.TID 0000.0001)  MDSREADFIELD: opening file: xx_atemp.0000000000.001.001.data
(PID.TID 0000.0001)  MDSREADFIELD: opening file: xx_aqh.0000000000.001.001.data
(PID.TID 0000.0001)  MDSREADFIELD: opening file: xx_aqh.0000000000.001.001.data
(PID.TID 0000.0001) 
(PID.TID 0000.0001)  exf_GetFFieldsRec: first, changed, fac:   F   F   0.49863388E+00
(PID.TID 0000.0001)  exf_GetFFieldsRec:      count0, count1:   1   2
(PID.TID 0000.0001) 
(PID.TID 0000.0001) 
(PID.TID 0000.0001)  exf_GetFFieldsRec: first, changed, fac:   F   F   0.49863388E+00
(PID.TID 0000.0001)  exf_GetFFieldsRec:      count0, count1:   1   2
(PID.TID 0000.0001) 
 cg2d: Sum(rhs),rhsMax =   7.37474317724640E-16  1.23585471329616E+00
(PID.TID 0000.0001)                    cg2d_init_res =    3.48544561450945E-01
(PID.TID 0000.0001)                       cg2d_iters =    45
(PID.TID 0000.0001)                         cg2d_res =    6.49477568692734E-14
(PID.TID 0000.0001) 
(PID.TID 0000.0001)  exf_GetFFieldsRec: first, changed, fac:   F   F   0.49726776E+00
(PID.TID 0000.0001)  exf_GetFFieldsRec:      count0, count1:   1   2
(PID.TID 0000.0001) 
(PID.TID 0000.0001) 
(PID.TID 0000.0001)  exf_GetFFieldsRec: first, changed, fac:   F   F   0.49726776E+00
(PID.TID 0000.0001)  exf_GetFFieldsRec:      count0, count1:   1   2
(PID.TID 0000.0001) 
(PID.TID 0000.0001)  MDSREADFIELD: opening file: xx_uwind.0000000000.001.001.data
(PID.TID 0000.0001)  MDSREADFIELD: opening file: xx_uwind.0000000000.001.001.data
(PID.TID 0000.0001)  MDSREADFIELD: opening file: xx_vwind.0000000000.001.001.data
(PID.TID 0000.0001)  MDSREADFIELD: opening file: xx_vwind.0000000000.001.001.data
(PID.TID 0000.0001) 
(PID.TID 0000.0001)  exf_GetFFieldsRec: first, changed, fac:   F   F   0.49726776E+00
(PID.TID 0000.0001)  exf_GetFFieldsRec:      count0, count1:   1   2
(PID.TID 0000.0001) 
(PID.TID 0000.0001) 
(PID.TID 0000.0001)  exf_GetFFieldsRec: first, changed, fac:   F   F   0.49726776E+00
(PID.TID 0000.0001)  exf_GetFFieldsRec:      count0, count1:   1   2
(PID.TID 0000.0001) 
(PID.TID 0000.0001) 
(PID.TID 0000.0001)  exf_GetFFieldsRec: first, changed, fac:   F   F   0.49726776E+00
(PID.TID 0000.0001)  exf_GetFFieldsRec:      count0, count1:   1   2
(PID.TID 0000.0001) 
(PID.TID 0000.0001)  MDSREADFIELD: opening file: xx_atemp.0000000000.001.001.data
(PID.TID 0000.0001)  MDSREADFIELD: opening file: xx_atemp.0000000000.001.001.data
(PID.TID 0000.0001)  MDSREADFIELD: opening file: xx_aqh.0000000000.001.001.data
(PID.TID 0000.0001)  MDSREADFIELD: opening file: xx_aqh.0000000000.001.001.data
(PID.TID 0000.0001) 
(PID.TID 0000.0001)  exf_GetFFieldsRec: first, changed, fac:   F   F   0.49726776E+00
(PID.TID 0000.0001)  exf_GetFFieldsRec:      count0, count1:   1   2
(PID.TID 0000.0001) 
(PID.TID 0000.0001) 
(PID.TID 0000.0001)  exf_GetFFieldsRec: first, changed, fac:   F   F   0.49726776E+00
(PID.TID 0000.0001)  exf_GetFFieldsRec:      count0, count1:   1   2
(PID.TID 0000.0001) 
 cg2d: Sum(rhs),rhsMax =   6.20553955443803E-15  1.25438452343302E+00
(PID.TID 0000.0001)                    cg2d_init_res =    2.36078257971889E-01
(PID.TID 0000.0001)                       cg2d_iters =    45
(PID.TID 0000.0001)                         cg2d_res =    6.62546240702124E-14
(PID.TID 0000.0001) 
(PID.TID 0000.0001)  exf_GetFFieldsRec: first, changed, fac:   F   F   0.49590164E+00
(PID.TID 0000.0001)  exf_GetFFieldsRec:      count0, count1:   1   2
(PID.TID 0000.0001) 
(PID.TID 0000.0001) 
(PID.TID 0000.0001)  exf_GetFFieldsRec: first, changed, fac:   F   F   0.49590164E+00
(PID.TID 0000.0001)  exf_GetFFieldsRec:      count0, count1:   1   2
(PID.TID 0000.0001) 
(PID.TID 0000.0001)  MDSREADFIELD: opening file: xx_uwind.0000000000.001.001.data
(PID.TID 0000.0001)  MDSREADFIELD: opening file: xx_uwind.0000000000.001.001.data
(PID.TID 0000.0001)  MDSREADFIELD: opening file: xx_vwind.0000000000.001.001.data
(PID.TID 0000.0001)  MDSREADFIELD: opening file: xx_vwind.0000000000.001.001.data
(PID.TID 0000.0001) 
(PID.TID 0000.0001)  exf_GetFFieldsRec: first, changed, fac:   F   F   0.49590164E+00
(PID.TID 0000.0001)  exf_GetFFieldsRec:      count0, count1:   1   2
(PID.TID 0000.0001) 
(PID.TID 0000.0001) 
(PID.TID 0000.0001)  exf_GetFFieldsRec: first, changed, fac:   F   F   0.49590164E+00
(PID.TID 0000.0001)  exf_GetFFieldsRec:      count0, count1:   1   2
(PID.TID 0000.0001) 
(PID.TID 0000.0001) 
(PID.TID 0000.0001)  exf_GetFFieldsRec: first, changed, fac:   F   F   0.49590164E+00
(PID.TID 0000.0001)  exf_GetFFieldsRec:      count0, count1:   1   2
(PID.TID 0000.0001) 
(PID.TID 0000.0001)  MDSREADFIELD: opening file: xx_atemp.0000000000.001.001.data
(PID.TID 0000.0001)  MDSREADFIELD: opening file: xx_atemp.0000000000.001.001.data
(PID.TID 0000.0001)  MDSREADFIELD: opening file: xx_aqh.0000000000.001.001.data
(PID.TID 0000.0001)  MDSREADFIELD: opening file: xx_aqh.0000000000.001.001.data
(PID.TID 0000.0001) 
(PID.TID 0000.0001)  exf_GetFFieldsRec: first, changed, fac:   F   F   0.49590164E+00
(PID.TID 0000.0001)  exf_GetFFieldsRec:      count0, count1:   1   2
(PID.TID 0000.0001) 
(PID.TID 0000.0001) 
(PID.TID 0000.0001)  exf_GetFFieldsRec: first, changed, fac:   F   F   0.49590164E+00
(PID.TID 0000.0001)  exf_GetFFieldsRec:      count0, count1:   1   2
(PID.TID 0000.0001) 
 cg2d: Sum(rhs),rhsMax =   3.20620266447413E-15  1.25494322187447E+00
(PID.TID 0000.0001)                    cg2d_init_res =    1.82553144014713E-01
(PID.TID 0000.0001)                       cg2d_iters =    45
(PID.TID 0000.0001)                         cg2d_res =    5.12415163303431E-14
(PID.TID 0000.0001)  MDSREADVECTOR: opening file: tapelev3_1_the_main_loop_gsnm1.it0000.001.001.data
(PID.TID 0000.0001)  MDS_READ_RL_VEC: irec =  00000001   00015456
(PID.TID 0000.0001)  MDSREADVECTOR: opening file: tapelev3_2_the_main_loop_gtnm1.it0000.001.001.data
(PID.TID 0000.0001)  MDS_READ_RL_VEC: irec =  00000001   00015456
(PID.TID 0000.0001)  MDSREADVECTOR: opening file: tapelev3_3_the_main_loop_gunm1.it0000.001.001.data
(PID.TID 0000.0001)  MDS_READ_RL_VEC: irec =  00000001   00015456
(PID.TID 0000.0001)  MDSREADVECTOR: opening file: tapelev3_4_the_main_loop_gvnm1.it0000.001.001.data
(PID.TID 0000.0001)  MDS_READ_RL_VEC: irec =  00000001   00015456
(PID.TID 0000.0001)  MDSREADVECTOR: opening file: tapelev3_5_the_main_loop_theta.it0000.001.001.data
(PID.TID 0000.0001)  MDS_READ_RL_VEC: irec =  00000001   00015456
(PID.TID 0000.0001)  MDSREADVECTOR: opening file: tapelev3_6_the_main_loop_salt.it0000.001.001.data
(PID.TID 0000.0001)  MDS_READ_RL_VEC: irec =  00000001   00015456
(PID.TID 0000.0001)  MDSREADVECTOR: opening file: tapelev3_7_the_main_loop_uvel.it0000.001.001.data
(PID.TID 0000.0001)  MDS_READ_RL_VEC: irec =  00000001   00015456
(PID.TID 0000.0001)  MDSREADVECTOR: opening file: tapelev3_8_the_main_loop_vvel.it0000.001.001.data
(PID.TID 0000.0001)  MDS_READ_RL_VEC: irec =  00000001   00015456
(PID.TID 0000.0001)  MDSREADVECTOR: opening file: tapelev3_9_the_main_loop_wvel.it0000.001.001.data
(PID.TID 0000.0001)  MDS_READ_RL_VEC: irec =  00000001   00015456
(PID.TID 0000.0001)  MDSREADVECTOR: opening file: tapelev3_10_the_main_loop_etan.it0000.001.001.data
(PID.TID 0000.0001)  MDS_READ_RL_VEC: irec =  00000001   00000672
(PID.TID 0000.0001)  MDSREADVECTOR: opening file: tapelev3_11_the_main_loop_gu.it0000.001.001.data
(PID.TID 0000.0001)  MDS_READ_RL_VEC: irec =  00000001   00015456
(PID.TID 0000.0001)  MDSREADVECTOR: opening file: tapelev3_12_the_main_loop_gv.it0000.001.001.data
(PID.TID 0000.0001)  MDS_READ_RL_VEC: irec =  00000001   00015456
(PID.TID 0000.0001)  MDSREADVECTOR: opening file: tapelev3_13_the_main_loop_uveld.it0000.001.001.data
(PID.TID 0000.0001)  MDS_READ_RL_VEC: irec =  00000001   00015456
(PID.TID 0000.0001)  MDSREADVECTOR: opening file: tapelev3_14_the_main_loop_vveld.it0000.001.001.data
(PID.TID 0000.0001)  MDS_READ_RL_VEC: irec =  00000001   00015456
(PID.TID 0000.0001)  MDSREADVECTOR: opening file: tapelev3_15_the_main_loop_etanm1.it0000.001.001.data
(PID.TID 0000.0001)  MDS_READ_RL_VEC: irec =  00000001   00000672
(PID.TID 0000.0001)  MDSREADVECTOR: opening file: tapelev3_16_the_main_loop_unm1.it0000.001.001.data
(PID.TID 0000.0001)  MDS_READ_RL_VEC: irec =  00000001   00015456
(PID.TID 0000.0001)  MDSREADVECTOR: opening file: tapelev3_17_the_main_loop_vnm1.it0000.001.001.data
(PID.TID 0000.0001)  MDS_READ_RL_VEC: irec =  00000001   00015456
(PID.TID 0000.0001)  MDSREADVECTOR: opening file: tapelev3_18_the_main_loop_gucd.it0000.001.001.data
(PID.TID 0000.0001)  MDS_READ_RL_VEC: irec =  00000001   00015456
(PID.TID 0000.0001)  MDSREADVECTOR: opening file: tapelev3_19_the_main_loop_gvcd.it0000.001.001.data
(PID.TID 0000.0001)  MDS_READ_RL_VEC: irec =  00000001   00015456
(PID.TID 0000.0001)  MDSREADVECTOR: opening file: tapelev3_20_the_main_loop_etah.it0000.001.001.data
(PID.TID 0000.0001)  MDS_READ_RL_VEC: irec =  00000001   00000672
(PID.TID 0000.0001)  MDSREADVECTOR: opening file: tapelev3_21_the_main_loop_hdivflow.it0000.001.001.data
(PID.TID 0000.0001)  MDS_READ_RL_VEC: irec =  00000001   00000672
(PID.TID 0000.0001)  MDSREADVECTOR: opening file: tapelev3_22_the_main_loop_aqh0.it0000.001.001.data
(PID.TID 0000.0001)  MDS_READ_RL_VEC: irec =  00000001   00000672
(PID.TID 0000.0001)  MDSREADVECTOR: opening file: tapelev3_23_the_main_loop_aqh1.it0000.001.001.data
(PID.TID 0000.0001)  MDS_READ_RL_VEC: irec =  00000001   00000672
(PID.TID 0000.0001)  MDSREADVECTOR: opening file: tapelev3_24_the_main_loop_atemp0.it0000.001.001.data
(PID.TID 0000.0001)  MDS_READ_RL_VEC: irec =  00000001   00000672
(PID.TID 0000.0001)  MDSREADVECTOR: opening file: tapelev3_25_the_main_loop_atemp1.it0000.001.001.data
(PID.TID 0000.0001)  MDS_READ_RL_VEC: irec =  00000001   00000672
(PID.TID 0000.0001)  MDSREADVECTOR: opening file: tapelev3_26_the_main_loop_precip0.it0000.001.001.data
(PID.TID 0000.0001)  MDS_READ_RL_VEC: irec =  00000001   00000672
(PID.TID 0000.0001)  MDSREADVECTOR: opening file: tapelev3_27_the_main_loop_precip1.it0000.001.001.data
(PID.TID 0000.0001)  MDS_READ_RL_VEC: irec =  00000001   00000672
(PID.TID 0000.0001)  MDSREADVECTOR: opening file: tapelev3_28_the_main_loop_lwflux0.it0000.001.001.data
(PID.TID 0000.0001)  MDS_READ_RL_VEC: irec =  00000001   00000672
(PID.TID 0000.0001)  MDSREADVECTOR: opening file: tapelev3_29_the_main_loop_lwflux1.it0000.001.001.data
(PID.TID 0000.0001)  MDS_READ_RL_VEC: irec =  00000001   00000672
(PID.TID 0000.0001)  MDSREADVECTOR: opening file: tapelev3_30_the_main_loop_swflux0.it0000.001.001.data
(PID.TID 0000.0001)  MDS_READ_RL_VEC: irec =  00000001   00000672
(PID.TID 0000.0001)  MDSREADVECTOR: opening file: tapelev3_31_the_main_loop_swflux1.it0000.001.001.data
(PID.TID 0000.0001)  MDS_READ_RL_VEC: irec =  00000001   00000672
(PID.TID 0000.0001)  MDSREADVECTOR: opening file: tapelev3_32_the_main_loop_evap.it0000.001.001.data
(PID.TID 0000.0001)  MDS_READ_RL_VEC: irec =  00000001   00000672
(PID.TID 0000.0001)  MDSREADVECTOR: opening file: tapelev3_33_the_main_loop_uwind0.it0000.001.001.data
(PID.TID 0000.0001)  MDS_READ_RL_VEC: irec =  00000001   00000672
(PID.TID 0000.0001)  MDSREADVECTOR: opening file: tapelev3_34_the_main_loop_uwind1.it0000.001.001.data
(PID.TID 0000.0001)  MDS_READ_RL_VEC: irec =  00000001   00000672
(PID.TID 0000.0001)  MDSREADVECTOR: opening file: tapelev3_35_the_main_loop_vwind0.it0000.001.001.data
(PID.TID 0000.0001)  MDS_READ_RL_VEC: irec =  00000001   00000672
(PID.TID 0000.0001)  MDSREADVECTOR: opening file: tapelev3_36_the_main_loop_vwind1.it0000.001.001.data
(PID.TID 0000.0001)  MDS_READ_RL_VEC: irec =  00000001   00000672
(PID.TID 0000.0001)  MDSREADVECTOR: opening file: tapelev2_1_the_main_loop_gsnm1.it0000.001.001.data
(PID.TID 0000.0001)  MDS_READ_RL_VEC: irec =  00000001   00015456
(PID.TID 0000.0001)  MDSREADVECTOR: opening file: tapelev2_2_the_main_loop_gtnm1.it0000.001.001.data
(PID.TID 0000.0001)  MDS_READ_RL_VEC: irec =  00000001   00015456
(PID.TID 0000.0001)  MDSREADVECTOR: opening file: tapelev2_3_the_main_loop_gunm1.it0000.001.001.data
(PID.TID 0000.0001)  MDS_READ_RL_VEC: irec =  00000001   00015456
(PID.TID 0000.0001)  MDSREADVECTOR: opening file: tapelev2_4_the_main_loop_gvnm1.it0000.001.001.data
(PID.TID 0000.0001)  MDS_READ_RL_VEC: irec =  00000001   00015456
(PID.TID 0000.0001)  MDSREADVECTOR: opening file: tapelev2_5_the_main_loop_theta.it0000.001.001.data
(PID.TID 0000.0001)  MDS_READ_RL_VEC: irec =  00000001   00015456
(PID.TID 0000.0001)  MDSREADVECTOR: opening file: tapelev2_6_the_main_loop_salt.it0000.001.001.data
(PID.TID 0000.0001)  MDS_READ_RL_VEC: irec =  00000001   00015456
(PID.TID 0000.0001)  MDSREADVECTOR: opening file: tapelev2_7_the_main_loop_uvel.it0000.001.001.data
(PID.TID 0000.0001)  MDS_READ_RL_VEC: irec =  00000001   00015456
(PID.TID 0000.0001)  MDSREADVECTOR: opening file: tapelev2_8_the_main_loop_vvel.it0000.001.001.data
(PID.TID 0000.0001)  MDS_READ_RL_VEC: irec =  00000001   00015456
(PID.TID 0000.0001)  MDSREADVECTOR: opening file: tapelev2_9_the_main_loop_wvel.it0000.001.001.data
(PID.TID 0000.0001)  MDS_READ_RL_VEC: irec =  00000001   00015456
(PID.TID 0000.0001)  MDSREADVECTOR: opening file: tapelev2_10_the_main_loop_etan.it0000.001.001.data
(PID.TID 0000.0001)  MDS_READ_RL_VEC: irec =  00000001   00000672
(PID.TID 0000.0001)  MDSREADVECTOR: opening file: tapelev2_11_the_main_loop_gu.it0000.001.001.data
(PID.TID 0000.0001)  MDS_READ_RL_VEC: irec =  00000001   00015456
(PID.TID 0000.0001)  MDSREADVECTOR: opening file: tapelev2_12_the_main_loop_gv.it0000.001.001.data
(PID.TID 0000.0001)  MDS_READ_RL_VEC: irec =  00000001   00015456
(PID.TID 0000.0001)  MDSREADVECTOR: opening file: tapelev2_13_the_main_loop_uveld.it0000.001.001.data
(PID.TID 0000.0001)  MDS_READ_RL_VEC: irec =  00000001   00015456
(PID.TID 0000.0001)  MDSREADVECTOR: opening file: tapelev2_14_the_main_loop_vveld.it0000.001.001.data
(PID.TID 0000.0001)  MDS_READ_RL_VEC: irec =  00000001   00015456
(PID.TID 0000.0001)  MDSREADVECTOR: opening file: tapelev2_15_the_main_loop_etanm1.it0000.001.001.data
(PID.TID 0000.0001)  MDS_READ_RL_VEC: irec =  00000001   00000672
(PID.TID 0000.0001)  MDSREADVECTOR: opening file: tapelev2_16_the_main_loop_unm1.it0000.001.001.data
(PID.TID 0000.0001)  MDS_READ_RL_VEC: irec =  00000001   00015456
(PID.TID 0000.0001)  MDSREADVECTOR: opening file: tapelev2_17_the_main_loop_vnm1.it0000.001.001.data
(PID.TID 0000.0001)  MDS_READ_RL_VEC: irec =  00000001   00015456
(PID.TID 0000.0001)  MDSREADVECTOR: opening file: tapelev2_18_the_main_loop_gucd.it0000.001.001.data
(PID.TID 0000.0001)  MDS_READ_RL_VEC: irec =  00000001   00015456
(PID.TID 0000.0001)  MDSREADVECTOR: opening file: tapelev2_19_the_main_loop_gvcd.it0000.001.001.data
(PID.TID 0000.0001)  MDS_READ_RL_VEC: irec =  00000001   00015456
(PID.TID 0000.0001)  MDSREADVECTOR: opening file: tapelev2_20_the_main_loop_etah.it0000.001.001.data
(PID.TID 0000.0001)  MDS_READ_RL_VEC: irec =  00000001   00000672
(PID.TID 0000.0001)  MDSREADVECTOR: opening file: tapelev2_21_the_main_loop_hdivflow.it0000.001.001.data
(PID.TID 0000.0001)  MDS_READ_RL_VEC: irec =  00000001   00000672
(PID.TID 0000.0001)  MDSREADVECTOR: opening file: tapelev2_22_the_main_loop_aqh0.it0000.001.001.data
(PID.TID 0000.0001)  MDS_READ_RL_VEC: irec =  00000001   00000672
(PID.TID 0000.0001)  MDSREADVECTOR: opening file: tapelev2_23_the_main_loop_aqh1.it0000.001.001.data
(PID.TID 0000.0001)  MDS_READ_RL_VEC: irec =  00000001   00000672
(PID.TID 0000.0001)  MDSREADVECTOR: opening file: tapelev2_24_the_main_loop_atemp0.it0000.001.001.data
(PID.TID 0000.0001)  MDS_READ_RL_VEC: irec =  00000001   00000672
(PID.TID 0000.0001)  MDSREADVECTOR: opening file: tapelev2_25_the_main_loop_atemp1.it0000.001.001.data
(PID.TID 0000.0001)  MDS_READ_RL_VEC: irec =  00000001   00000672
(PID.TID 0000.0001)  MDSREADVECTOR: opening file: tapelev2_26_the_main_loop_precip0.it0000.001.001.data
(PID.TID 0000.0001)  MDS_READ_RL_VEC: irec =  00000001   00000672
(PID.TID 0000.0001)  MDSREADVECTOR: opening file: tapelev2_27_the_main_loop_precip1.it0000.001.001.data
(PID.TID 0000.0001)  MDS_READ_RL_VEC: irec =  00000001   00000672
(PID.TID 0000.0001)  MDSREADVECTOR: opening file: tapelev2_28_the_main_loop_lwflux0.it0000.001.001.data
(PID.TID 0000.0001)  MDS_READ_RL_VEC: irec =  00000001   00000672
(PID.TID 0000.0001)  MDSREADVECTOR: opening file: tapelev2_29_the_main_loop_lwflux1.it0000.001.001.data
(PID.TID 0000.0001)  MDS_READ_RL_VEC: irec =  00000001   00000672
(PID.TID 0000.0001)  MDSREADVECTOR: opening file: tapelev2_30_the_main_loop_swflux0.it0000.001.001.data
(PID.TID 0000.0001)  MDS_READ_RL_VEC: irec =  00000001   00000672
(PID.TID 0000.0001)  MDSREADVECTOR: opening file: tapelev2_31_the_main_loop_swflux1.it0000.001.001.data
(PID.TID 0000.0001)  MDS_READ_RL_VEC: irec =  00000001   00000672
(PID.TID 0000.0001)  MDSREADVECTOR: opening file: tapelev2_32_the_main_loop_evap.it0000.001.001.data
(PID.TID 0000.0001)  MDS_READ_RL_VEC: irec =  00000001   00000672
(PID.TID 0000.0001)  MDSREADVECTOR: opening file: tapelev2_33_the_main_loop_uwind0.it0000.001.001.data
(PID.TID 0000.0001)  MDS_READ_RL_VEC: irec =  00000001   00000672
(PID.TID 0000.0001)  MDSREADVECTOR: opening file: tapelev2_34_the_main_loop_uwind1.it0000.001.001.data
(PID.TID 0000.0001)  MDS_READ_RL_VEC: irec =  00000001   00000672
(PID.TID 0000.0001)  MDSREADVECTOR: opening file: tapelev2_35_the_main_loop_vwind0.it0000.001.001.data
(PID.TID 0000.0001)  MDS_READ_RL_VEC: irec =  00000001   00000672
(PID.TID 0000.0001)  MDSREADVECTOR: opening file: tapelev2_36_the_main_loop_vwind1.it0000.001.001.data
(PID.TID 0000.0001)  MDS_READ_RL_VEC: irec =  00000001   00000672
(PID.TID 0000.0001) 
(PID.TID 0000.0001)  exf_GetFFieldsRec: first, changed, fac:   T   F   0.50000000E+00
(PID.TID 0000.0001)  exf_GetFFieldsRec:      count0, count1:   1   2
(PID.TID 0000.0001) 
(PID.TID 0000.0001)  MDSREADFIELD: opening global file: u10m.labsea79
(PID.TID 0000.0001)  MDSREADFIELD: opening global file: u10m.labsea79
(PID.TID 0000.0001) 
(PID.TID 0000.0001)  exf_GetFFieldsRec: first, changed, fac:   T   F   0.50000000E+00
(PID.TID 0000.0001)  exf_GetFFieldsRec:      count0, count1:   1   2
(PID.TID 0000.0001) 
(PID.TID 0000.0001)  MDSREADFIELD: opening global file: v10m.labsea79
(PID.TID 0000.0001)  MDSREADFIELD: opening global file: v10m.labsea79
(PID.TID 0000.0001)  MDSREADFIELD: opening file: xx_uwind.0000000000.001.001.data
(PID.TID 0000.0001)  MDSREADFIELD: opening file: xx_uwind.0000000000.001.001.data
(PID.TID 0000.0001)  MDSREADFIELD: opening file: xx_vwind.0000000000.001.001.data
(PID.TID 0000.0001)  MDSREADFIELD: opening file: xx_vwind.0000000000.001.001.data
(PID.TID 0000.0001) 
(PID.TID 0000.0001)  exf_GetFFieldsRec: first, changed, fac:   T   F   0.50000000E+00
(PID.TID 0000.0001)  exf_GetFFieldsRec:      count0, count1:   1   2
(PID.TID 0000.0001) 
(PID.TID 0000.0001)  MDSREADFIELD: opening global file: tair.labsea1979
(PID.TID 0000.0001)  MDSREADFIELD: opening global file: tair.labsea1979
(PID.TID 0000.0001) 
(PID.TID 0000.0001)  exf_GetFFieldsRec: first, changed, fac:   T   F   0.50000000E+00
(PID.TID 0000.0001)  exf_GetFFieldsRec:      count0, count1:   1   2
(PID.TID 0000.0001) 
(PID.TID 0000.0001)  MDSREADFIELD: opening global file: qa.labsea1979
(PID.TID 0000.0001)  MDSREADFIELD: opening global file: qa.labsea1979
(PID.TID 0000.0001) 
(PID.TID 0000.0001)  exf_GetFFieldsRec: first, changed, fac:   T   F   0.50000000E+00
(PID.TID 0000.0001)  exf_GetFFieldsRec:      count0, count1:   1   2
(PID.TID 0000.0001) 
(PID.TID 0000.0001)  MDSREADFIELD: opening global file: prate.labsea1979
(PID.TID 0000.0001)  MDSREADFIELD: opening global file: prate.labsea1979
(PID.TID 0000.0001)  MDSREADFIELD: opening file: xx_atemp.0000000000.001.001.data
(PID.TID 0000.0001)  MDSREADFIELD: opening file: xx_atemp.0000000000.001.001.data
(PID.TID 0000.0001)  MDSREADFIELD: opening file: xx_aqh.0000000000.001.001.data
(PID.TID 0000.0001)  MDSREADFIELD: opening file: xx_aqh.0000000000.001.001.data
(PID.TID 0000.0001) 
(PID.TID 0000.0001)  exf_GetFFieldsRec: first, changed, fac:   T   F   0.50000000E+00
(PID.TID 0000.0001)  exf_GetFFieldsRec:      count0, count1:   1   2
(PID.TID 0000.0001) 
(PID.TID 0000.0001)  MDSREADFIELD: opening global file: fsh.labsea1979
(PID.TID 0000.0001)  MDSREADFIELD: opening global file: fsh.labsea1979
(PID.TID 0000.0001) 
(PID.TID 0000.0001)  exf_GetFFieldsRec: first, changed, fac:   T   F   0.50000000E+00
(PID.TID 0000.0001)  exf_GetFFieldsRec:      count0, count1:   1   2
(PID.TID 0000.0001) 
(PID.TID 0000.0001)  MDSREADFIELD: opening global file: flo.labsea1979
(PID.TID 0000.0001)  MDSREADFIELD: opening global file: flo.labsea1979
 cg2d: Sum(rhs),rhsMax =   1.95590071916385E-16  1.00807802167630E+00
(PID.TID 0000.0001)                    cg2d_init_res =    1.61521300655486E+00
(PID.TID 0000.0001)                       cg2d_iters =    47
(PID.TID 0000.0001)                         cg2d_res =    5.70138941994743E-14
(PID.TID 0000.0001) 
(PID.TID 0000.0001)  exf_GetFFieldsRec: first, changed, fac:   F   F   0.49863388E+00
(PID.TID 0000.0001)  exf_GetFFieldsRec:      count0, count1:   1   2
(PID.TID 0000.0001) 
(PID.TID 0000.0001) 
(PID.TID 0000.0001)  exf_GetFFieldsRec: first, changed, fac:   F   F   0.49863388E+00
(PID.TID 0000.0001)  exf_GetFFieldsRec:      count0, count1:   1   2
(PID.TID 0000.0001) 
(PID.TID 0000.0001)  MDSREADFIELD: opening file: xx_uwind.0000000000.001.001.data
(PID.TID 0000.0001)  MDSREADFIELD: opening file: xx_uwind.0000000000.001.001.data
(PID.TID 0000.0001)  MDSREADFIELD: opening file: xx_vwind.0000000000.001.001.data
(PID.TID 0000.0001)  MDSREADFIELD: opening file: xx_vwind.0000000000.001.001.data
(PID.TID 0000.0001) 
(PID.TID 0000.0001)  exf_GetFFieldsRec: first, changed, fac:   F   F   0.49863388E+00
(PID.TID 0000.0001)  exf_GetFFieldsRec:      count0, count1:   1   2
(PID.TID 0000.0001) 
(PID.TID 0000.0001) 
(PID.TID 0000.0001)  exf_GetFFieldsRec: first, changed, fac:   F   F   0.49863388E+00
(PID.TID 0000.0001)  exf_GetFFieldsRec:      count0, count1:   1   2
(PID.TID 0000.0001) 
(PID.TID 0000.0001) 
(PID.TID 0000.0001)  exf_GetFFieldsRec: first, changed, fac:   F   F   0.49863388E+00
(PID.TID 0000.0001)  exf_GetFFieldsRec:      count0, count1:   1   2
(PID.TID 0000.0001) 
(PID.TID 0000.0001)  MDSREADFIELD: opening file: xx_atemp.0000000000.001.001.data
(PID.TID 0000.0001)  MDSREADFIELD: opening file: xx_atemp.0000000000.001.001.data
(PID.TID 0000.0001)  MDSREADFIELD: opening file: xx_aqh.0000000000.001.001.data
(PID.TID 0000.0001)  MDSREADFIELD: opening file: xx_aqh.0000000000.001.001.data
(PID.TID 0000.0001) 
(PID.TID 0000.0001)  exf_GetFFieldsRec: first, changed, fac:   F   F   0.49863388E+00
(PID.TID 0000.0001)  exf_GetFFieldsRec:      count0, count1:   1   2
(PID.TID 0000.0001) 
(PID.TID 0000.0001) 
(PID.TID 0000.0001)  exf_GetFFieldsRec: first, changed, fac:   F   F   0.49863388E+00
(PID.TID 0000.0001)  exf_GetFFieldsRec:      count0, count1:   1   2
(PID.TID 0000.0001) 
 cg2d: Sum(rhs),rhsMax =   7.37474317724640E-16  1.23585471329616E+00
(PID.TID 0000.0001)                    cg2d_init_res =    3.48544561450945E-01
(PID.TID 0000.0001)                       cg2d_iters =    45
(PID.TID 0000.0001)                         cg2d_res =    6.49477568692734E-14
(PID.TID 0000.0001) 
(PID.TID 0000.0001)  exf_GetFFieldsRec: first, changed, fac:   F   F   0.49726776E+00
(PID.TID 0000.0001)  exf_GetFFieldsRec:      count0, count1:   1   2
(PID.TID 0000.0001) 
(PID.TID 0000.0001) 
(PID.TID 0000.0001)  exf_GetFFieldsRec: first, changed, fac:   F   F   0.49726776E+00
(PID.TID 0000.0001)  exf_GetFFieldsRec:      count0, count1:   1   2
(PID.TID 0000.0001) 
(PID.TID 0000.0001)  MDSREADFIELD: opening file: xx_uwind.0000000000.001.001.data
(PID.TID 0000.0001)  MDSREADFIELD: opening file: xx_uwind.0000000000.001.001.data
(PID.TID 0000.0001)  MDSREADFIELD: opening file: xx_vwind.0000000000.001.001.data
(PID.TID 0000.0001)  MDSREADFIELD: opening file: xx_vwind.0000000000.001.001.data
(PID.TID 0000.0001) 
(PID.TID 0000.0001)  exf_GetFFieldsRec: first, changed, fac:   F   F   0.49726776E+00
(PID.TID 0000.0001)  exf_GetFFieldsRec:      count0, count1:   1   2
(PID.TID 0000.0001) 
(PID.TID 0000.0001) 
(PID.TID 0000.0001)  exf_GetFFieldsRec: first, changed, fac:   F   F   0.49726776E+00
(PID.TID 0000.0001)  exf_GetFFieldsRec:      count0, count1:   1   2
(PID.TID 0000.0001) 
(PID.TID 0000.0001) 
(PID.TID 0000.0001)  exf_GetFFieldsRec: first, changed, fac:   F   F   0.49726776E+00
(PID.TID 0000.0001)  exf_GetFFieldsRec:      count0, count1:   1   2
(PID.TID 0000.0001) 
(PID.TID 0000.0001)  MDSREADFIELD: opening file: xx_atemp.0000000000.001.001.data
(PID.TID 0000.0001)  MDSREADFIELD: opening file: xx_atemp.0000000000.001.001.data
(PID.TID 0000.0001)  MDSREADFIELD: opening file: xx_aqh.0000000000.001.001.data
(PID.TID 0000.0001)  MDSREADFIELD: opening file: xx_aqh.0000000000.001.001.data
(PID.TID 0000.0001) 
(PID.TID 0000.0001)  exf_GetFFieldsRec: first, changed, fac:   F   F   0.49726776E+00
(PID.TID 0000.0001)  exf_GetFFieldsRec:      count0, count1:   1   2
(PID.TID 0000.0001) 
(PID.TID 0000.0001) 
(PID.TID 0000.0001)  exf_GetFFieldsRec: first, changed, fac:   F   F   0.49726776E+00
(PID.TID 0000.0001)  exf_GetFFieldsRec:      count0, count1:   1   2
(PID.TID 0000.0001) 
 cg2d: Sum(rhs),rhsMax =   6.20553955443803E-15  1.25438452343302E+00
(PID.TID 0000.0001)                    cg2d_init_res =    2.36078257971889E-01
(PID.TID 0000.0001)                       cg2d_iters =    45
(PID.TID 0000.0001)                         cg2d_res =    6.62546240665608E-14
(PID.TID 0000.0001) 
(PID.TID 0000.0001)  exf_GetFFieldsRec: first, changed, fac:   F   F   0.49590164E+00
(PID.TID 0000.0001)  exf_GetFFieldsRec:      count0, count1:   1   2
(PID.TID 0000.0001) 
(PID.TID 0000.0001) 
(PID.TID 0000.0001)  exf_GetFFieldsRec: first, changed, fac:   F   F   0.49590164E+00
(PID.TID 0000.0001)  exf_GetFFieldsRec:      count0, count1:   1   2
(PID.TID 0000.0001) 
(PID.TID 0000.0001)  MDSREADFIELD: opening file: xx_uwind.0000000000.001.001.data
(PID.TID 0000.0001)  MDSREADFIELD: opening file: xx_uwind.0000000000.001.001.data
(PID.TID 0000.0001)  MDSREADFIELD: opening file: xx_vwind.0000000000.001.001.data
(PID.TID 0000.0001)  MDSREADFIELD: opening file: xx_vwind.0000000000.001.001.data
(PID.TID 0000.0001) 
(PID.TID 0000.0001)  exf_GetFFieldsRec: first, changed, fac:   F   F   0.49590164E+00
(PID.TID 0000.0001)  exf_GetFFieldsRec:      count0, count1:   1   2
(PID.TID 0000.0001) 
(PID.TID 0000.0001) 
(PID.TID 0000.0001)  exf_GetFFieldsRec: first, changed, fac:   F   F   0.49590164E+00
(PID.TID 0000.0001)  exf_GetFFieldsRec:      count0, count1:   1   2
(PID.TID 0000.0001) 
(PID.TID 0000.0001) 
(PID.TID 0000.0001)  exf_GetFFieldsRec: first, changed, fac:   F   F   0.49590164E+00
(PID.TID 0000.0001)  exf_GetFFieldsRec:      count0, count1:   1   2
(PID.TID 0000.0001) 
(PID.TID 0000.0001)  MDSREADFIELD: opening file: xx_atemp.0000000000.001.001.data
(PID.TID 0000.0001)  MDSREADFIELD: opening file: xx_atemp.0000000000.001.001.data
(PID.TID 0000.0001)  MDSREADFIELD: opening file: xx_aqh.0000000000.001.001.data
(PID.TID 0000.0001)  MDSREADFIELD: opening file: xx_aqh.0000000000.001.001.data
(PID.TID 0000.0001) 
(PID.TID 0000.0001)  exf_GetFFieldsRec: first, changed, fac:   F   F   0.49590164E+00
(PID.TID 0000.0001)  exf_GetFFieldsRec:      count0, count1:   1   2
(PID.TID 0000.0001) 
(PID.TID 0000.0001) 
(PID.TID 0000.0001)  exf_GetFFieldsRec: first, changed, fac:   F   F   0.49590164E+00
(PID.TID 0000.0001)  exf_GetFFieldsRec:      count0, count1:   1   2
(PID.TID 0000.0001) 
 cg2d: Sum(rhs),rhsMax =   3.42911463113715E-15  1.25494322187447E+00
(PID.TID 0000.0001)                    cg2d_init_res =    1.82553144014713E-01
(PID.TID 0000.0001)                       cg2d_iters =    45
(PID.TID 0000.0001)                         cg2d_res =    5.12415163341492E-14
(PID.TID 0000.0001)  MDSREADVECTOR: opening file: tapelev2_1_the_main_loop_gsnm1.it0000.001.001.data
(PID.TID 0000.0001)  MDS_READ_RL_VEC: irec =  00000001   00015456
(PID.TID 0000.0001)  MDSREADVECTOR: opening file: tapelev2_2_the_main_loop_gtnm1.it0000.001.001.data
(PID.TID 0000.0001)  MDS_READ_RL_VEC: irec =  00000001   00015456
(PID.TID 0000.0001)  MDSREADVECTOR: opening file: tapelev2_3_the_main_loop_gunm1.it0000.001.001.data
(PID.TID 0000.0001)  MDS_READ_RL_VEC: irec =  00000001   00015456
(PID.TID 0000.0001)  MDSREADVECTOR: opening file: tapelev2_4_the_main_loop_gvnm1.it0000.001.001.data
(PID.TID 0000.0001)  MDS_READ_RL_VEC: irec =  00000001   00015456
(PID.TID 0000.0001)  MDSREADVECTOR: opening file: tapelev2_5_the_main_loop_theta.it0000.001.001.data
(PID.TID 0000.0001)  MDS_READ_RL_VEC: irec =  00000001   00015456
(PID.TID 0000.0001)  MDSREADVECTOR: opening file: tapelev2_6_the_main_loop_salt.it0000.001.001.data
(PID.TID 0000.0001)  MDS_READ_RL_VEC: irec =  00000001   00015456
(PID.TID 0000.0001)  MDSREADVECTOR: opening file: tapelev2_7_the_main_loop_uvel.it0000.001.001.data
(PID.TID 0000.0001)  MDS_READ_RL_VEC: irec =  00000001   00015456
(PID.TID 0000.0001)  MDSREADVECTOR: opening file: tapelev2_8_the_main_loop_vvel.it0000.001.001.data
(PID.TID 0000.0001)  MDS_READ_RL_VEC: irec =  00000001   00015456
(PID.TID 0000.0001)  MDSREADVECTOR: opening file: tapelev2_9_the_main_loop_wvel.it0000.001.001.data
(PID.TID 0000.0001)  MDS_READ_RL_VEC: irec =  00000001   00015456
(PID.TID 0000.0001)  MDSREADVECTOR: opening file: tapelev2_10_the_main_loop_etan.it0000.001.001.data
(PID.TID 0000.0001)  MDS_READ_RL_VEC: irec =  00000001   00000672
(PID.TID 0000.0001)  MDSREADVECTOR: opening file: tapelev2_11_the_main_loop_gu.it0000.001.001.data
(PID.TID 0000.0001)  MDS_READ_RL_VEC: irec =  00000001   00015456
(PID.TID 0000.0001)  MDSREADVECTOR: opening file: tapelev2_12_the_main_loop_gv.it0000.001.001.data
(PID.TID 0000.0001)  MDS_READ_RL_VEC: irec =  00000001   00015456
(PID.TID 0000.0001)  MDSREADVECTOR: opening file: tapelev2_13_the_main_loop_uveld.it0000.001.001.data
(PID.TID 0000.0001)  MDS_READ_RL_VEC: irec =  00000001   00015456
(PID.TID 0000.0001)  MDSREADVECTOR: opening file: tapelev2_14_the_main_loop_vveld.it0000.001.001.data
(PID.TID 0000.0001)  MDS_READ_RL_VEC: irec =  00000001   00015456
(PID.TID 0000.0001)  MDSREADVECTOR: opening file: tapelev2_15_the_main_loop_etanm1.it0000.001.001.data
(PID.TID 0000.0001)  MDS_READ_RL_VEC: irec =  00000001   00000672
(PID.TID 0000.0001)  MDSREADVECTOR: opening file: tapelev2_16_the_main_loop_unm1.it0000.001.001.data
(PID.TID 0000.0001)  MDS_READ_RL_VEC: irec =  00000001   00015456
(PID.TID 0000.0001)  MDSREADVECTOR: opening file: tapelev2_17_the_main_loop_vnm1.it0000.001.001.data
(PID.TID 0000.0001)  MDS_READ_RL_VEC: irec =  00000001   00015456
(PID.TID 0000.0001)  MDSREADVECTOR: opening file: tapelev2_18_the_main_loop_gucd.it0000.001.001.data
(PID.TID 0000.0001)  MDS_READ_RL_VEC: irec =  00000001   00015456
(PID.TID 0000.0001)  MDSREADVECTOR: opening file: tapelev2_19_the_main_loop_gvcd.it0000.001.001.data
(PID.TID 0000.0001)  MDS_READ_RL_VEC: irec =  00000001   00015456
(PID.TID 0000.0001)  MDSREADVECTOR: opening file: tapelev2_20_the_main_loop_etah.it0000.001.001.data
(PID.TID 0000.0001)  MDS_READ_RL_VEC: irec =  00000001   00000672
(PID.TID 0000.0001)  MDSREADVECTOR: opening file: tapelev2_21_the_main_loop_hdivflow.it0000.001.001.data
(PID.TID 0000.0001)  MDS_READ_RL_VEC: irec =  00000001   00000672
(PID.TID 0000.0001)  MDSREADVECTOR: opening file: tapelev2_22_the_main_loop_aqh0.it0000.001.001.data
(PID.TID 0000.0001)  MDS_READ_RL_VEC: irec =  00000001   00000672
(PID.TID 0000.0001)  MDSREADVECTOR: opening file: tapelev2_23_the_main_loop_aqh1.it0000.001.001.data
(PID.TID 0000.0001)  MDS_READ_RL_VEC: irec =  00000001   00000672
(PID.TID 0000.0001)  MDSREADVECTOR: opening file: tapelev2_24_the_main_loop_atemp0.it0000.001.001.data
(PID.TID 0000.0001)  MDS_READ_RL_VEC: irec =  00000001   00000672
(PID.TID 0000.0001)  MDSREADVECTOR: opening file: tapelev2_25_the_main_loop_atemp1.it0000.001.001.data
(PID.TID 0000.0001)  MDS_READ_RL_VEC: irec =  00000001   00000672
(PID.TID 0000.0001)  MDSREADVECTOR: opening file: tapelev2_26_the_main_loop_precip0.it0000.001.001.data
(PID.TID 0000.0001)  MDS_READ_RL_VEC: irec =  00000001   00000672
(PID.TID 0000.0001)  MDSREADVECTOR: opening file: tapelev2_27_the_main_loop_precip1.it0000.001.001.data
(PID.TID 0000.0001)  MDS_READ_RL_VEC: irec =  00000001   00000672
(PID.TID 0000.0001)  MDSREADVECTOR: opening file: tapelev2_28_the_main_loop_lwflux0.it0000.001.001.data
(PID.TID 0000.0001)  MDS_READ_RL_VEC: irec =  00000001   00000672
(PID.TID 0000.0001)  MDSREADVECTOR: opening file: tapelev2_29_the_main_loop_lwflux1.it0000.001.001.data
(PID.TID 0000.0001)  MDS_READ_RL_VEC: irec =  00000001   00000672
(PID.TID 0000.0001)  MDSREADVECTOR: opening file: tapelev2_30_the_main_loop_swflux0.it0000.001.001.data
(PID.TID 0000.0001)  MDS_READ_RL_VEC: irec =  00000001   00000672
(PID.TID 0000.0001)  MDSREADVECTOR: opening file: tapelev2_31_the_main_loop_swflux1.it0000.001.001.data
(PID.TID 0000.0001)  MDS_READ_RL_VEC: irec =  00000001   00000672
(PID.TID 0000.0001)  MDSREADVECTOR: opening file: tapelev2_32_the_main_loop_evap.it0000.001.001.data
(PID.TID 0000.0001)  MDS_READ_RL_VEC: irec =  00000001   00000672
(PID.TID 0000.0001)  MDSREADVECTOR: opening file: tapelev2_33_the_main_loop_uwind0.it0000.001.001.data
(PID.TID 0000.0001)  MDS_READ_RL_VEC: irec =  00000001   00000672
(PID.TID 0000.0001)  MDSREADVECTOR: opening file: tapelev2_34_the_main_loop_uwind1.it0000.001.001.data
(PID.TID 0000.0001)  MDS_READ_RL_VEC: irec =  00000001   00000672
(PID.TID 0000.0001)  MDSREADVECTOR: opening file: tapelev2_35_the_main_loop_vwind0.it0000.001.001.data
(PID.TID 0000.0001)  MDS_READ_RL_VEC: irec =  00000001   00000672
(PID.TID 0000.0001)  MDSREADVECTOR: opening file: tapelev2_36_the_main_loop_vwind1.it0000.001.001.data
(PID.TID 0000.0001)  MDS_READ_RL_VEC: irec =  00000001   00000672
(PID.TID 0000.0001) 
(PID.TID 0000.0001)  exf_GetFFieldsRec: first, changed, fac:   T   F   0.50000000E+00
(PID.TID 0000.0001)  exf_GetFFieldsRec:      count0, count1:   1   2
(PID.TID 0000.0001) 
(PID.TID 0000.0001)  MDSREADFIELD: opening global file: u10m.labsea79
(PID.TID 0000.0001)  MDSREADFIELD: opening global file: u10m.labsea79
(PID.TID 0000.0001) 
(PID.TID 0000.0001)  exf_GetFFieldsRec: first, changed, fac:   T   F   0.50000000E+00
(PID.TID 0000.0001)  exf_GetFFieldsRec:      count0, count1:   1   2
(PID.TID 0000.0001) 
(PID.TID 0000.0001)  MDSREADFIELD: opening global file: v10m.labsea79
(PID.TID 0000.0001)  MDSREADFIELD: opening global file: v10m.labsea79
(PID.TID 0000.0001)  MDSREADFIELD: opening file: xx_uwind.0000000000.001.001.data
(PID.TID 0000.0001)  MDSREADFIELD: opening file: xx_uwind.0000000000.001.001.data
(PID.TID 0000.0001)  MDSREADFIELD: opening file: xx_vwind.0000000000.001.001.data
(PID.TID 0000.0001)  MDSREADFIELD: opening file: xx_vwind.0000000000.001.001.data
(PID.TID 0000.0001) 
(PID.TID 0000.0001)  exf_GetFFieldsRec: first, changed, fac:   T   F   0.50000000E+00
(PID.TID 0000.0001)  exf_GetFFieldsRec:      count0, count1:   1   2
(PID.TID 0000.0001) 
(PID.TID 0000.0001)  MDSREADFIELD: opening global file: tair.labsea1979
(PID.TID 0000.0001)  MDSREADFIELD: opening global file: tair.labsea1979
(PID.TID 0000.0001) 
(PID.TID 0000.0001)  exf_GetFFieldsRec: first, changed, fac:   T   F   0.50000000E+00
(PID.TID 0000.0001)  exf_GetFFieldsRec:      count0, count1:   1   2
(PID.TID 0000.0001) 
(PID.TID 0000.0001)  MDSREADFIELD: opening global file: qa.labsea1979
(PID.TID 0000.0001)  MDSREADFIELD: opening global file: qa.labsea1979
(PID.TID 0000.0001) 
(PID.TID 0000.0001)  exf_GetFFieldsRec: first, changed, fac:   T   F   0.50000000E+00
(PID.TID 0000.0001)  exf_GetFFieldsRec:      count0, count1:   1   2
(PID.TID 0000.0001) 
(PID.TID 0000.0001)  MDSREADFIELD: opening global file: prate.labsea1979
(PID.TID 0000.0001)  MDSREADFIELD: opening global file: prate.labsea1979
(PID.TID 0000.0001)  MDSREADFIELD: opening file: xx_atemp.0000000000.001.001.data
(PID.TID 0000.0001)  MDSREADFIELD: opening file: xx_atemp.0000000000.001.001.data
(PID.TID 0000.0001)  MDSREADFIELD: opening file: xx_aqh.0000000000.001.001.data
(PID.TID 0000.0001)  MDSREADFIELD: opening file: xx_aqh.0000000000.001.001.data
(PID.TID 0000.0001) 
(PID.TID 0000.0001)  exf_GetFFieldsRec: first, changed, fac:   T   F   0.50000000E+00
(PID.TID 0000.0001)  exf_GetFFieldsRec:      count0, count1:   1   2
(PID.TID 0000.0001) 
(PID.TID 0000.0001)  MDSREADFIELD: opening global file: fsh.labsea1979
(PID.TID 0000.0001)  MDSREADFIELD: opening global file: fsh.labsea1979
(PID.TID 0000.0001) 
(PID.TID 0000.0001)  exf_GetFFieldsRec: first, changed, fac:   T   F   0.50000000E+00
(PID.TID 0000.0001)  exf_GetFFieldsRec:      count0, count1:   1   2
(PID.TID 0000.0001) 
(PID.TID 0000.0001)  MDSREADFIELD: opening global file: flo.labsea1979
(PID.TID 0000.0001)  MDSREADFIELD: opening global file: flo.labsea1979
 cg2d: Sum(rhs),rhsMax =   1.95590071916385E-16  1.00807802167630E+00
(PID.TID 0000.0001)                    cg2d_init_res =    1.61521300655486E+00
(PID.TID 0000.0001)                       cg2d_iters =    47
(PID.TID 0000.0001)                         cg2d_res =    5.70138941994743E-14
(PID.TID 0000.0001) 
(PID.TID 0000.0001)  exf_GetFFieldsRec: first, changed, fac:   F   F   0.49863388E+00
(PID.TID 0000.0001)  exf_GetFFieldsRec:      count0, count1:   1   2
(PID.TID 0000.0001) 
(PID.TID 0000.0001) 
(PID.TID 0000.0001)  exf_GetFFieldsRec: first, changed, fac:   F   F   0.49863388E+00
(PID.TID 0000.0001)  exf_GetFFieldsRec:      count0, count1:   1   2
(PID.TID 0000.0001) 
(PID.TID 0000.0001)  MDSREADFIELD: opening file: xx_uwind.0000000000.001.001.data
(PID.TID 0000.0001)  MDSREADFIELD: opening file: xx_uwind.0000000000.001.001.data
(PID.TID 0000.0001)  MDSREADFIELD: opening file: xx_vwind.0000000000.001.001.data
(PID.TID 0000.0001)  MDSREADFIELD: opening file: xx_vwind.0000000000.001.001.data
(PID.TID 0000.0001) 
(PID.TID 0000.0001)  exf_GetFFieldsRec: first, changed, fac:   F   F   0.49863388E+00
(PID.TID 0000.0001)  exf_GetFFieldsRec:      count0, count1:   1   2
(PID.TID 0000.0001) 
(PID.TID 0000.0001) 
(PID.TID 0000.0001)  exf_GetFFieldsRec: first, changed, fac:   F   F   0.49863388E+00
(PID.TID 0000.0001)  exf_GetFFieldsRec:      count0, count1:   1   2
(PID.TID 0000.0001) 
(PID.TID 0000.0001) 
(PID.TID 0000.0001)  exf_GetFFieldsRec: first, changed, fac:   F   F   0.49863388E+00
(PID.TID 0000.0001)  exf_GetFFieldsRec:      count0, count1:   1   2
(PID.TID 0000.0001) 
(PID.TID 0000.0001)  MDSREADFIELD: opening file: xx_atemp.0000000000.001.001.data
(PID.TID 0000.0001)  MDSREADFIELD: opening file: xx_atemp.0000000000.001.001.data
(PID.TID 0000.0001)  MDSREADFIELD: opening file: xx_aqh.0000000000.001.001.data
(PID.TID 0000.0001)  MDSREADFIELD: opening file: xx_aqh.0000000000.001.001.data
(PID.TID 0000.0001) 
(PID.TID 0000.0001)  exf_GetFFieldsRec: first, changed, fac:   F   F   0.49863388E+00
(PID.TID 0000.0001)  exf_GetFFieldsRec:      count0, count1:   1   2
(PID.TID 0000.0001) 
(PID.TID 0000.0001) 
(PID.TID 0000.0001)  exf_GetFFieldsRec: first, changed, fac:   F   F   0.49863388E+00
(PID.TID 0000.0001)  exf_GetFFieldsRec:      count0, count1:   1   2
(PID.TID 0000.0001) 
 cg2d: Sum(rhs),rhsMax =   7.37474317724640E-16  1.23585471329616E+00
(PID.TID 0000.0001)                    cg2d_init_res =    3.48544561450945E-01
(PID.TID 0000.0001)                       cg2d_iters =    45
(PID.TID 0000.0001)                         cg2d_res =    6.49477568692734E-14
(PID.TID 0000.0001) 
(PID.TID 0000.0001)  exf_GetFFieldsRec: first, changed, fac:   F   F   0.49726776E+00
(PID.TID 0000.0001)  exf_GetFFieldsRec:      count0, count1:   1   2
(PID.TID 0000.0001) 
(PID.TID 0000.0001) 
(PID.TID 0000.0001)  exf_GetFFieldsRec: first, changed, fac:   F   F   0.49726776E+00
(PID.TID 0000.0001)  exf_GetFFieldsRec:      count0, count1:   1   2
(PID.TID 0000.0001) 
(PID.TID 0000.0001)  MDSREADFIELD: opening file: xx_uwind.0000000000.001.001.data
(PID.TID 0000.0001)  MDSREADFIELD: opening file: xx_uwind.0000000000.001.001.data
(PID.TID 0000.0001)  MDSREADFIELD: opening file: xx_vwind.0000000000.001.001.data
(PID.TID 0000.0001)  MDSREADFIELD: opening file: xx_vwind.0000000000.001.001.data
(PID.TID 0000.0001) 
(PID.TID 0000.0001)  exf_GetFFieldsRec: first, changed, fac:   F   F   0.49726776E+00
(PID.TID 0000.0001)  exf_GetFFieldsRec:      count0, count1:   1   2
(PID.TID 0000.0001) 
(PID.TID 0000.0001) 
(PID.TID 0000.0001)  exf_GetFFieldsRec: first, changed, fac:   F   F   0.49726776E+00
(PID.TID 0000.0001)  exf_GetFFieldsRec:      count0, count1:   1   2
(PID.TID 0000.0001) 
(PID.TID 0000.0001) 
(PID.TID 0000.0001)  exf_GetFFieldsRec: first, changed, fac:   F   F   0.49726776E+00
(PID.TID 0000.0001)  exf_GetFFieldsRec:      count0, count1:   1   2
(PID.TID 0000.0001) 
(PID.TID 0000.0001)  MDSREADFIELD: opening file: xx_atemp.0000000000.001.001.data
(PID.TID 0000.0001)  MDSREADFIELD: opening file: xx_atemp.0000000000.001.001.data
(PID.TID 0000.0001)  MDSREADFIELD: opening file: xx_aqh.0000000000.001.001.data
(PID.TID 0000.0001)  MDSREADFIELD: opening file: xx_aqh.0000000000.001.001.data
(PID.TID 0000.0001) 
(PID.TID 0000.0001)  exf_GetFFieldsRec: first, changed, fac:   F   F   0.49726776E+00
(PID.TID 0000.0001)  exf_GetFFieldsRec:      count0, count1:   1   2
(PID.TID 0000.0001) 
(PID.TID 0000.0001) 
(PID.TID 0000.0001)  exf_GetFFieldsRec: first, changed, fac:   F   F   0.49726776E+00
(PID.TID 0000.0001)  exf_GetFFieldsRec:      count0, count1:   1   2
(PID.TID 0000.0001) 
 cg2d: Sum(rhs),rhsMax =   6.20553955443803E-15  1.25438452343302E+00
(PID.TID 0000.0001)                    cg2d_init_res =    2.36078257971889E-01
(PID.TID 0000.0001)                       cg2d_iters =    45
(PID.TID 0000.0001)                         cg2d_res =    6.62546240702124E-14
(PID.TID 0000.0001) 
(PID.TID 0000.0001)  exf_GetFFieldsRec: first, changed, fac:   F   F   0.49590164E+00
(PID.TID 0000.0001)  exf_GetFFieldsRec:      count0, count1:   1   2
(PID.TID 0000.0001) 
(PID.TID 0000.0001) 
(PID.TID 0000.0001)  exf_GetFFieldsRec: first, changed, fac:   F   F   0.49590164E+00
(PID.TID 0000.0001)  exf_GetFFieldsRec:      count0, count1:   1   2
(PID.TID 0000.0001) 
(PID.TID 0000.0001)  MDSREADFIELD: opening file: xx_uwind.0000000000.001.001.data
(PID.TID 0000.0001)  MDSREADFIELD: opening file: xx_uwind.0000000000.001.001.data
(PID.TID 0000.0001)  MDSREADFIELD: opening file: xx_vwind.0000000000.001.001.data
(PID.TID 0000.0001)  MDSREADFIELD: opening file: xx_vwind.0000000000.001.001.data
(PID.TID 0000.0001) 
(PID.TID 0000.0001)  exf_GetFFieldsRec: first, changed, fac:   F   F   0.49590164E+00
(PID.TID 0000.0001)  exf_GetFFieldsRec:      count0, count1:   1   2
(PID.TID 0000.0001) 
(PID.TID 0000.0001) 
(PID.TID 0000.0001)  exf_GetFFieldsRec: first, changed, fac:   F   F   0.49590164E+00
(PID.TID 0000.0001)  exf_GetFFieldsRec:      count0, count1:   1   2
(PID.TID 0000.0001) 
(PID.TID 0000.0001) 
(PID.TID 0000.0001)  exf_GetFFieldsRec: first, changed, fac:   F   F   0.49590164E+00
(PID.TID 0000.0001)  exf_GetFFieldsRec:      count0, count1:   1   2
(PID.TID 0000.0001) 
(PID.TID 0000.0001)  MDSREADFIELD: opening file: xx_atemp.0000000000.001.001.data
(PID.TID 0000.0001)  MDSREADFIELD: opening file: xx_atemp.0000000000.001.001.data
(PID.TID 0000.0001)  MDSREADFIELD: opening file: xx_aqh.0000000000.001.001.data
(PID.TID 0000.0001)  MDSREADFIELD: opening file: xx_aqh.0000000000.001.001.data
(PID.TID 0000.0001) 
(PID.TID 0000.0001)  exf_GetFFieldsRec: first, changed, fac:   F   F   0.49590164E+00
(PID.TID 0000.0001)  exf_GetFFieldsRec:      count0, count1:   1   2
(PID.TID 0000.0001) 
(PID.TID 0000.0001) 
(PID.TID 0000.0001)  exf_GetFFieldsRec: first, changed, fac:   F   F   0.49590164E+00
(PID.TID 0000.0001)  exf_GetFFieldsRec:      count0, count1:   1   2
(PID.TID 0000.0001) 
 cg2d: Sum(rhs),rhsMax =   3.20620266447413E-15  1.25494322187447E+00
(PID.TID 0000.0001)                    cg2d_init_res =    1.82553144014713E-01
(PID.TID 0000.0001)                       cg2d_iters =    45
(PID.TID 0000.0001)                         cg2d_res =    5.12415163303431E-14
(PID.TID 0000.0001)  MDSREADVECTOR: opening file: tapelev2_1_the_main_loop_gsnm1.it0000.001.001.data
(PID.TID 0000.0001)  MDS_READ_RL_VEC: irec =  00000001   00015456
(PID.TID 0000.0001)  MDSREADVECTOR: opening file: tapelev2_2_the_main_loop_gtnm1.it0000.001.001.data
(PID.TID 0000.0001)  MDS_READ_RL_VEC: irec =  00000001   00015456
(PID.TID 0000.0001)  MDSREADVECTOR: opening file: tapelev2_3_the_main_loop_gunm1.it0000.001.001.data
(PID.TID 0000.0001)  MDS_READ_RL_VEC: irec =  00000001   00015456
(PID.TID 0000.0001)  MDSREADVECTOR: opening file: tapelev2_4_the_main_loop_gvnm1.it0000.001.001.data
(PID.TID 0000.0001)  MDS_READ_RL_VEC: irec =  00000001   00015456
(PID.TID 0000.0001)  MDSREADVECTOR: opening file: tapelev2_5_the_main_loop_theta.it0000.001.001.data
(PID.TID 0000.0001)  MDS_READ_RL_VEC: irec =  00000001   00015456
(PID.TID 0000.0001)  MDSREADVECTOR: opening file: tapelev2_6_the_main_loop_salt.it0000.001.001.data
(PID.TID 0000.0001)  MDS_READ_RL_VEC: irec =  00000001   00015456
(PID.TID 0000.0001)  MDSREADVECTOR: opening file: tapelev2_7_the_main_loop_uvel.it0000.001.001.data
(PID.TID 0000.0001)  MDS_READ_RL_VEC: irec =  00000001   00015456
(PID.TID 0000.0001)  MDSREADVECTOR: opening file: tapelev2_8_the_main_loop_vvel.it0000.001.001.data
(PID.TID 0000.0001)  MDS_READ_RL_VEC: irec =  00000001   00015456
(PID.TID 0000.0001)  MDSREADVECTOR: opening file: tapelev2_9_the_main_loop_wvel.it0000.001.001.data
(PID.TID 0000.0001)  MDS_READ_RL_VEC: irec =  00000001   00015456
(PID.TID 0000.0001)  MDSREADVECTOR: opening file: tapelev2_10_the_main_loop_etan.it0000.001.001.data
(PID.TID 0000.0001)  MDS_READ_RL_VEC: irec =  00000001   00000672
(PID.TID 0000.0001)  MDSREADVECTOR: opening file: tapelev2_11_the_main_loop_gu.it0000.001.001.data
(PID.TID 0000.0001)  MDS_READ_RL_VEC: irec =  00000001   00015456
(PID.TID 0000.0001)  MDSREADVECTOR: opening file: tapelev2_12_the_main_loop_gv.it0000.001.001.data
(PID.TID 0000.0001)  MDS_READ_RL_VEC: irec =  00000001   00015456
(PID.TID 0000.0001)  MDSREADVECTOR: opening file: tapelev2_13_the_main_loop_uveld.it0000.001.001.data
(PID.TID 0000.0001)  MDS_READ_RL_VEC: irec =  00000001   00015456
(PID.TID 0000.0001)  MDSREADVECTOR: opening file: tapelev2_14_the_main_loop_vveld.it0000.001.001.data
(PID.TID 0000.0001)  MDS_READ_RL_VEC: irec =  00000001   00015456
(PID.TID 0000.0001)  MDSREADVECTOR: opening file: tapelev2_15_the_main_loop_etanm1.it0000.001.001.data
(PID.TID 0000.0001)  MDS_READ_RL_VEC: irec =  00000001   00000672
(PID.TID 0000.0001)  MDSREADVECTOR: opening file: tapelev2_16_the_main_loop_unm1.it0000.001.001.data
(PID.TID 0000.0001)  MDS_READ_RL_VEC: irec =  00000001   00015456
(PID.TID 0000.0001)  MDSREADVECTOR: opening file: tapelev2_17_the_main_loop_vnm1.it0000.001.001.data
(PID.TID 0000.0001)  MDS_READ_RL_VEC: irec =  00000001   00015456
(PID.TID 0000.0001)  MDSREADVECTOR: opening file: tapelev2_18_the_main_loop_gucd.it0000.001.001.data
(PID.TID 0000.0001)  MDS_READ_RL_VEC: irec =  00000001   00015456
(PID.TID 0000.0001)  MDSREADVECTOR: opening file: tapelev2_19_the_main_loop_gvcd.it0000.001.001.data
(PID.TID 0000.0001)  MDS_READ_RL_VEC: irec =  00000001   00015456
(PID.TID 0000.0001)  MDSREADVECTOR: opening file: tapelev2_20_the_main_loop_etah.it0000.001.001.data
(PID.TID 0000.0001)  MDS_READ_RL_VEC: irec =  00000001   00000672
(PID.TID 0000.0001)  MDSREADVECTOR: opening file: tapelev2_21_the_main_loop_hdivflow.it0000.001.001.data
(PID.TID 0000.0001)  MDS_READ_RL_VEC: irec =  00000001   00000672
(PID.TID 0000.0001)  MDSREADVECTOR: opening file: tapelev2_22_the_main_loop_aqh0.it0000.001.001.data
(PID.TID 0000.0001)  MDS_READ_RL_VEC: irec =  00000001   00000672
(PID.TID 0000.0001)  MDSREADVECTOR: opening file: tapelev2_23_the_main_loop_aqh1.it0000.001.001.data
(PID.TID 0000.0001)  MDS_READ_RL_VEC: irec =  00000001   00000672
(PID.TID 0000.0001)  MDSREADVECTOR: opening file: tapelev2_24_the_main_loop_atemp0.it0000.001.001.data
(PID.TID 0000.0001)  MDS_READ_RL_VEC: irec =  00000001   00000672
(PID.TID 0000.0001)  MDSREADVECTOR: opening file: tapelev2_25_the_main_loop_atemp1.it0000.001.001.data
(PID.TID 0000.0001)  MDS_READ_RL_VEC: irec =  00000001   00000672
(PID.TID 0000.0001)  MDSREADVECTOR: opening file: tapelev2_26_the_main_loop_precip0.it0000.001.001.data
(PID.TID 0000.0001)  MDS_READ_RL_VEC: irec =  00000001   00000672
(PID.TID 0000.0001)  MDSREADVECTOR: opening file: tapelev2_27_the_main_loop_precip1.it0000.001.001.data
(PID.TID 0000.0001)  MDS_READ_RL_VEC: irec =  00000001   00000672
(PID.TID 0000.0001)  MDSREADVECTOR: opening file: tapelev2_28_the_main_loop_lwflux0.it0000.001.001.data
(PID.TID 0000.0001)  MDS_READ_RL_VEC: irec =  00000001   00000672
(PID.TID 0000.0001)  MDSREADVECTOR: opening file: tapelev2_29_the_main_loop_lwflux1.it0000.001.001.data
(PID.TID 0000.0001)  MDS_READ_RL_VEC: irec =  00000001   00000672
(PID.TID 0000.0001)  MDSREADVECTOR: opening file: tapelev2_30_the_main_loop_swflux0.it0000.001.001.data
(PID.TID 0000.0001)  MDS_READ_RL_VEC: irec =  00000001   00000672
(PID.TID 0000.0001)  MDSREADVECTOR: opening file: tapelev2_31_the_main_loop_swflux1.it0000.001.001.data
(PID.TID 0000.0001)  MDS_READ_RL_VEC: irec =  00000001   00000672
(PID.TID 0000.0001)  MDSREADVECTOR: opening file: tapelev2_32_the_main_loop_evap.it0000.001.001.data
(PID.TID 0000.0001)  MDS_READ_RL_VEC: irec =  00000001   00000672
(PID.TID 0000.0001)  MDSREADVECTOR: opening file: tapelev2_33_the_main_loop_uwind0.it0000.001.001.data
(PID.TID 0000.0001)  MDS_READ_RL_VEC: irec =  00000001   00000672
(PID.TID 0000.0001)  MDSREADVECTOR: opening file: tapelev2_34_the_main_loop_uwind1.it0000.001.001.data
(PID.TID 0000.0001)  MDS_READ_RL_VEC: irec =  00000001   00000672
(PID.TID 0000.0001)  MDSREADVECTOR: opening file: tapelev2_35_the_main_loop_vwind0.it0000.001.001.data
(PID.TID 0000.0001)  MDS_READ_RL_VEC: irec =  00000001   00000672
(PID.TID 0000.0001)  MDSREADVECTOR: opening file: tapelev2_36_the_main_loop_vwind1.it0000.001.001.data
(PID.TID 0000.0001)  MDS_READ_RL_VEC: irec =  00000001   00000672
(PID.TID 0000.0001) 
(PID.TID 0000.0001)  exf_GetFFieldsRec: first, changed, fac:   T   F   0.50000000E+00
(PID.TID 0000.0001)  exf_GetFFieldsRec:      count0, count1:   1   2
(PID.TID 0000.0001) 
(PID.TID 0000.0001)  MDSREADFIELD: opening global file: u10m.labsea79
(PID.TID 0000.0001)  MDSREADFIELD: opening global file: u10m.labsea79
(PID.TID 0000.0001) 
(PID.TID 0000.0001)  exf_GetFFieldsRec: first, changed, fac:   T   F   0.50000000E+00
(PID.TID 0000.0001)  exf_GetFFieldsRec:      count0, count1:   1   2
(PID.TID 0000.0001) 
(PID.TID 0000.0001)  MDSREADFIELD: opening global file: v10m.labsea79
(PID.TID 0000.0001)  MDSREADFIELD: opening global file: v10m.labsea79
(PID.TID 0000.0001)  MDSREADFIELD: opening file: xx_uwind.0000000000.001.001.data
(PID.TID 0000.0001)  MDSREADFIELD: opening file: xx_uwind.0000000000.001.001.data
(PID.TID 0000.0001)  MDSREADFIELD: opening file: xx_vwind.0000000000.001.001.data
(PID.TID 0000.0001)  MDSREADFIELD: opening file: xx_vwind.0000000000.001.001.data
(PID.TID 0000.0001) 
(PID.TID 0000.0001)  exf_GetFFieldsRec: first, changed, fac:   T   F   0.50000000E+00
(PID.TID 0000.0001)  exf_GetFFieldsRec:      count0, count1:   1   2
(PID.TID 0000.0001) 
(PID.TID 0000.0001)  MDSREADFIELD: opening global file: tair.labsea1979
(PID.TID 0000.0001)  MDSREADFIELD: opening global file: tair.labsea1979
(PID.TID 0000.0001) 
(PID.TID 0000.0001)  exf_GetFFieldsRec: first, changed, fac:   T   F   0.50000000E+00
(PID.TID 0000.0001)  exf_GetFFieldsRec:      count0, count1:   1   2
(PID.TID 0000.0001) 
(PID.TID 0000.0001)  MDSREADFIELD: opening global file: qa.labsea1979
(PID.TID 0000.0001)  MDSREADFIELD: opening global file: qa.labsea1979
(PID.TID 0000.0001) 
(PID.TID 0000.0001)  exf_GetFFieldsRec: first, changed, fac:   T   F   0.50000000E+00
(PID.TID 0000.0001)  exf_GetFFieldsRec:      count0, count1:   1   2
(PID.TID 0000.0001) 
(PID.TID 0000.0001)  MDSREADFIELD: opening global file: prate.labsea1979
(PID.TID 0000.0001)  MDSREADFIELD: opening global file: prate.labsea1979
(PID.TID 0000.0001)  MDSREADFIELD: opening file: xx_atemp.0000000000.001.001.data
(PID.TID 0000.0001)  MDSREADFIELD: opening file: xx_atemp.0000000000.001.001.data
(PID.TID 0000.0001)  MDSREADFIELD: opening file: xx_aqh.0000000000.001.001.data
(PID.TID 0000.0001)  MDSREADFIELD: opening file: xx_aqh.0000000000.001.001.data
(PID.TID 0000.0001) 
(PID.TID 0000.0001)  exf_GetFFieldsRec: first, changed, fac:   T   F   0.50000000E+00
(PID.TID 0000.0001)  exf_GetFFieldsRec:      count0, count1:   1   2
(PID.TID 0000.0001) 
(PID.TID 0000.0001)  MDSREADFIELD: opening global file: fsh.labsea1979
(PID.TID 0000.0001)  MDSREADFIELD: opening global file: fsh.labsea1979
(PID.TID 0000.0001) 
(PID.TID 0000.0001)  exf_GetFFieldsRec: first, changed, fac:   T   F   0.50000000E+00
(PID.TID 0000.0001)  exf_GetFFieldsRec:      count0, count1:   1   2
(PID.TID 0000.0001) 
(PID.TID 0000.0001)  MDSREADFIELD: opening global file: flo.labsea1979
(PID.TID 0000.0001)  MDSREADFIELD: opening global file: flo.labsea1979
 cg2d: Sum(rhs),rhsMax =   1.95590071916385E-16  1.00807802167630E+00
(PID.TID 0000.0001)                    cg2d_init_res =    1.61521300655486E+00
(PID.TID 0000.0001)                       cg2d_iters =    47
(PID.TID 0000.0001)                         cg2d_res =    5.70138941994743E-14
(PID.TID 0000.0001) 
(PID.TID 0000.0001)  exf_GetFFieldsRec: first, changed, fac:   F   F   0.49863388E+00
(PID.TID 0000.0001)  exf_GetFFieldsRec:      count0, count1:   1   2
(PID.TID 0000.0001) 
(PID.TID 0000.0001) 
(PID.TID 0000.0001)  exf_GetFFieldsRec: first, changed, fac:   F   F   0.49863388E+00
(PID.TID 0000.0001)  exf_GetFFieldsRec:      count0, count1:   1   2
(PID.TID 0000.0001) 
(PID.TID 0000.0001)  MDSREADFIELD: opening file: xx_uwind.0000000000.001.001.data
(PID.TID 0000.0001)  MDSREADFIELD: opening file: xx_uwind.0000000000.001.001.data
(PID.TID 0000.0001)  MDSREADFIELD: opening file: xx_vwind.0000000000.001.001.data
(PID.TID 0000.0001)  MDSREADFIELD: opening file: xx_vwind.0000000000.001.001.data
(PID.TID 0000.0001) 
(PID.TID 0000.0001)  exf_GetFFieldsRec: first, changed, fac:   F   F   0.49863388E+00
(PID.TID 0000.0001)  exf_GetFFieldsRec:      count0, count1:   1   2
(PID.TID 0000.0001) 
(PID.TID 0000.0001) 
(PID.TID 0000.0001)  exf_GetFFieldsRec: first, changed, fac:   F   F   0.49863388E+00
(PID.TID 0000.0001)  exf_GetFFieldsRec:      count0, count1:   1   2
(PID.TID 0000.0001) 
(PID.TID 0000.0001) 
(PID.TID 0000.0001)  exf_GetFFieldsRec: first, changed, fac:   F   F   0.49863388E+00
(PID.TID 0000.0001)  exf_GetFFieldsRec:      count0, count1:   1   2
(PID.TID 0000.0001) 
(PID.TID 0000.0001)  MDSREADFIELD: opening file: xx_atemp.0000000000.001.001.data
(PID.TID 0000.0001)  MDSREADFIELD: opening file: xx_atemp.0000000000.001.001.data
(PID.TID 0000.0001)  MDSREADFIELD: opening file: xx_aqh.0000000000.001.001.data
(PID.TID 0000.0001)  MDSREADFIELD: opening file: xx_aqh.0000000000.001.001.data
(PID.TID 0000.0001) 
(PID.TID 0000.0001)  exf_GetFFieldsRec: first, changed, fac:   F   F   0.49863388E+00
(PID.TID 0000.0001)  exf_GetFFieldsRec:      count0, count1:   1   2
(PID.TID 0000.0001) 
(PID.TID 0000.0001) 
(PID.TID 0000.0001)  exf_GetFFieldsRec: first, changed, fac:   F   F   0.49863388E+00
(PID.TID 0000.0001)  exf_GetFFieldsRec:      count0, count1:   1   2
(PID.TID 0000.0001) 
 cg2d: Sum(rhs),rhsMax =   7.37474317724640E-16  1.23585471329616E+00
(PID.TID 0000.0001)                    cg2d_init_res =    3.48544561450945E-01
(PID.TID 0000.0001)                       cg2d_iters =    45
(PID.TID 0000.0001)                         cg2d_res =    6.49477568692734E-14
(PID.TID 0000.0001) 
(PID.TID 0000.0001)  exf_GetFFieldsRec: first, changed, fac:   F   F   0.49726776E+00
(PID.TID 0000.0001)  exf_GetFFieldsRec:      count0, count1:   1   2
(PID.TID 0000.0001) 
(PID.TID 0000.0001) 
(PID.TID 0000.0001)  exf_GetFFieldsRec: first, changed, fac:   F   F   0.49726776E+00
(PID.TID 0000.0001)  exf_GetFFieldsRec:      count0, count1:   1   2
(PID.TID 0000.0001) 
(PID.TID 0000.0001)  MDSREADFIELD: opening file: xx_uwind.0000000000.001.001.data
(PID.TID 0000.0001)  MDSREADFIELD: opening file: xx_uwind.0000000000.001.001.data
(PID.TID 0000.0001)  MDSREADFIELD: opening file: xx_vwind.0000000000.001.001.data
(PID.TID 0000.0001)  MDSREADFIELD: opening file: xx_vwind.0000000000.001.001.data
(PID.TID 0000.0001) 
(PID.TID 0000.0001)  exf_GetFFieldsRec: first, changed, fac:   F   F   0.49726776E+00
(PID.TID 0000.0001)  exf_GetFFieldsRec:      count0, count1:   1   2
(PID.TID 0000.0001) 
(PID.TID 0000.0001) 
(PID.TID 0000.0001)  exf_GetFFieldsRec: first, changed, fac:   F   F   0.49726776E+00
(PID.TID 0000.0001)  exf_GetFFieldsRec:      count0, count1:   1   2
(PID.TID 0000.0001) 
(PID.TID 0000.0001) 
(PID.TID 0000.0001)  exf_GetFFieldsRec: first, changed, fac:   F   F   0.49726776E+00
(PID.TID 0000.0001)  exf_GetFFieldsRec:      count0, count1:   1   2
(PID.TID 0000.0001) 
(PID.TID 0000.0001)  MDSREADFIELD: opening file: xx_atemp.0000000000.001.001.data
(PID.TID 0000.0001)  MDSREADFIELD: opening file: xx_atemp.0000000000.001.001.data
(PID.TID 0000.0001)  MDSREADFIELD: opening file: xx_aqh.0000000000.001.001.data
(PID.TID 0000.0001)  MDSREADFIELD: opening file: xx_aqh.0000000000.001.001.data
(PID.TID 0000.0001) 
(PID.TID 0000.0001)  exf_GetFFieldsRec: first, changed, fac:   F   F   0.49726776E+00
(PID.TID 0000.0001)  exf_GetFFieldsRec:      count0, count1:   1   2
(PID.TID 0000.0001) 
(PID.TID 0000.0001) 
(PID.TID 0000.0001)  exf_GetFFieldsRec: first, changed, fac:   F   F   0.49726776E+00
(PID.TID 0000.0001)  exf_GetFFieldsRec:      count0, count1:   1   2
(PID.TID 0000.0001) 
 cg2d: Sum(rhs),rhsMax =   6.20553955443803E-15  1.25438452343302E+00
(PID.TID 0000.0001)                    cg2d_init_res =    2.36078257971889E-01
(PID.TID 0000.0001)                       cg2d_iters =    45
(PID.TID 0000.0001)                         cg2d_res =    6.62546240702124E-14
(PID.TID 0000.0001) 
(PID.TID 0000.0001)  exf_GetFFieldsRec: first, changed, fac:   F   F   0.49590164E+00
(PID.TID 0000.0001)  exf_GetFFieldsRec:      count0, count1:   1   2
(PID.TID 0000.0001) 
(PID.TID 0000.0001) 
(PID.TID 0000.0001)  exf_GetFFieldsRec: first, changed, fac:   F   F   0.49590164E+00
(PID.TID 0000.0001)  exf_GetFFieldsRec:      count0, count1:   1   2
(PID.TID 0000.0001) 
(PID.TID 0000.0001)  MDSREADFIELD: opening file: xx_uwind.0000000000.001.001.data
(PID.TID 0000.0001)  MDSREADFIELD: opening file: xx_uwind.0000000000.001.001.data
(PID.TID 0000.0001)  MDSREADFIELD: opening file: xx_vwind.0000000000.001.001.data
(PID.TID 0000.0001)  MDSREADFIELD: opening file: xx_vwind.0000000000.001.001.data
(PID.TID 0000.0001) 
(PID.TID 0000.0001)  exf_GetFFieldsRec: first, changed, fac:   F   F   0.49590164E+00
(PID.TID 0000.0001)  exf_GetFFieldsRec:      count0, count1:   1   2
(PID.TID 0000.0001) 
(PID.TID 0000.0001) 
(PID.TID 0000.0001)  exf_GetFFieldsRec: first, changed, fac:   F   F   0.49590164E+00
(PID.TID 0000.0001)  exf_GetFFieldsRec:      count0, count1:   1   2
(PID.TID 0000.0001) 
(PID.TID 0000.0001) 
(PID.TID 0000.0001)  exf_GetFFieldsRec: first, changed, fac:   F   F   0.49590164E+00
(PID.TID 0000.0001)  exf_GetFFieldsRec:      count0, count1:   1   2
(PID.TID 0000.0001) 
(PID.TID 0000.0001)  MDSREADFIELD: opening file: xx_atemp.0000000000.001.001.data
(PID.TID 0000.0001)  MDSREADFIELD: opening file: xx_atemp.0000000000.001.001.data
(PID.TID 0000.0001)  MDSREADFIELD: opening file: xx_aqh.0000000000.001.001.data
(PID.TID 0000.0001)  MDSREADFIELD: opening file: xx_aqh.0000000000.001.001.data
(PID.TID 0000.0001) 
(PID.TID 0000.0001)  exf_GetFFieldsRec: first, changed, fac:   F   F   0.49590164E+00
(PID.TID 0000.0001)  exf_GetFFieldsRec:      count0, count1:   1   2
(PID.TID 0000.0001) 
(PID.TID 0000.0001) 
(PID.TID 0000.0001)  exf_GetFFieldsRec: first, changed, fac:   F   F   0.49590164E+00
(PID.TID 0000.0001)  exf_GetFFieldsRec:      count0, count1:   1   2
(PID.TID 0000.0001) 
 cg2d: Sum(rhs),rhsMax =   3.20620266447413E-15  1.25494322187447E+00
(PID.TID 0000.0001)                    cg2d_init_res =    1.82553144014713E-01
(PID.TID 0000.0001)                       cg2d_iters =    45
(PID.TID 0000.0001)                         cg2d_res =    5.12415163303431E-14
(PID.TID 0000.0001)  MDSREADVECTOR: opening file: tapelev2_1_the_main_loop_gsnm1.it0000.001.001.data
(PID.TID 0000.0001)  MDS_READ_RL_VEC: irec =  00000001   00015456
(PID.TID 0000.0001)  MDSREADVECTOR: opening file: tapelev2_2_the_main_loop_gtnm1.it0000.001.001.data
(PID.TID 0000.0001)  MDS_READ_RL_VEC: irec =  00000001   00015456
(PID.TID 0000.0001)  MDSREADVECTOR: opening file: tapelev2_3_the_main_loop_gunm1.it0000.001.001.data
(PID.TID 0000.0001)  MDS_READ_RL_VEC: irec =  00000001   00015456
(PID.TID 0000.0001)  MDSREADVECTOR: opening file: tapelev2_4_the_main_loop_gvnm1.it0000.001.001.data
(PID.TID 0000.0001)  MDS_READ_RL_VEC: irec =  00000001   00015456
(PID.TID 0000.0001)  MDSREADVECTOR: opening file: tapelev2_5_the_main_loop_theta.it0000.001.001.data
(PID.TID 0000.0001)  MDS_READ_RL_VEC: irec =  00000001   00015456
(PID.TID 0000.0001)  MDSREADVECTOR: opening file: tapelev2_6_the_main_loop_salt.it0000.001.001.data
(PID.TID 0000.0001)  MDS_READ_RL_VEC: irec =  00000001   00015456
(PID.TID 0000.0001)  MDSREADVECTOR: opening file: tapelev2_7_the_main_loop_uvel.it0000.001.001.data
(PID.TID 0000.0001)  MDS_READ_RL_VEC: irec =  00000001   00015456
(PID.TID 0000.0001)  MDSREADVECTOR: opening file: tapelev2_8_the_main_loop_vvel.it0000.001.001.data
(PID.TID 0000.0001)  MDS_READ_RL_VEC: irec =  00000001   00015456
(PID.TID 0000.0001)  MDSREADVECTOR: opening file: tapelev2_9_the_main_loop_wvel.it0000.001.001.data
(PID.TID 0000.0001)  MDS_READ_RL_VEC: irec =  00000001   00015456
(PID.TID 0000.0001)  MDSREADVECTOR: opening file: tapelev2_10_the_main_loop_etan.it0000.001.001.data
(PID.TID 0000.0001)  MDS_READ_RL_VEC: irec =  00000001   00000672
(PID.TID 0000.0001)  MDSREADVECTOR: opening file: tapelev2_11_the_main_loop_gu.it0000.001.001.data
(PID.TID 0000.0001)  MDS_READ_RL_VEC: irec =  00000001   00015456
(PID.TID 0000.0001)  MDSREADVECTOR: opening file: tapelev2_12_the_main_loop_gv.it0000.001.001.data
(PID.TID 0000.0001)  MDS_READ_RL_VEC: irec =  00000001   00015456
(PID.TID 0000.0001)  MDSREADVECTOR: opening file: tapelev2_13_the_main_loop_uveld.it0000.001.001.data
(PID.TID 0000.0001)  MDS_READ_RL_VEC: irec =  00000001   00015456
(PID.TID 0000.0001)  MDSREADVECTOR: opening file: tapelev2_14_the_main_loop_vveld.it0000.001.001.data
(PID.TID 0000.0001)  MDS_READ_RL_VEC: irec =  00000001   00015456
(PID.TID 0000.0001)  MDSREADVECTOR: opening file: tapelev2_15_the_main_loop_etanm1.it0000.001.001.data
(PID.TID 0000.0001)  MDS_READ_RL_VEC: irec =  00000001   00000672
(PID.TID 0000.0001)  MDSREADVECTOR: opening file: tapelev2_16_the_main_loop_unm1.it0000.001.001.data
(PID.TID 0000.0001)  MDS_READ_RL_VEC: irec =  00000001   00015456
(PID.TID 0000.0001)  MDSREADVECTOR: opening file: tapelev2_17_the_main_loop_vnm1.it0000.001.001.data
(PID.TID 0000.0001)  MDS_READ_RL_VEC: irec =  00000001   00015456
(PID.TID 0000.0001)  MDSREADVECTOR: opening file: tapelev2_18_the_main_loop_gucd.it0000.001.001.data
(PID.TID 0000.0001)  MDS_READ_RL_VEC: irec =  00000001   00015456
(PID.TID 0000.0001)  MDSREADVECTOR: opening file: tapelev2_19_the_main_loop_gvcd.it0000.001.001.data
(PID.TID 0000.0001)  MDS_READ_RL_VEC: irec =  00000001   00015456
(PID.TID 0000.0001)  MDSREADVECTOR: opening file: tapelev2_20_the_main_loop_etah.it0000.001.001.data
(PID.TID 0000.0001)  MDS_READ_RL_VEC: irec =  00000001   00000672
(PID.TID 0000.0001)  MDSREADVECTOR: opening file: tapelev2_21_the_main_loop_hdivflow.it0000.001.001.data
(PID.TID 0000.0001)  MDS_READ_RL_VEC: irec =  00000001   00000672
(PID.TID 0000.0001)  MDSREADVECTOR: opening file: tapelev2_22_the_main_loop_aqh0.it0000.001.001.data
(PID.TID 0000.0001)  MDS_READ_RL_VEC: irec =  00000001   00000672
(PID.TID 0000.0001)  MDSREADVECTOR: opening file: tapelev2_23_the_main_loop_aqh1.it0000.001.001.data
(PID.TID 0000.0001)  MDS_READ_RL_VEC: irec =  00000001   00000672
(PID.TID 0000.0001)  MDSREADVECTOR: opening file: tapelev2_24_the_main_loop_atemp0.it0000.001.001.data
(PID.TID 0000.0001)  MDS_READ_RL_VEC: irec =  00000001   00000672
(PID.TID 0000.0001)  MDSREADVECTOR: opening file: tapelev2_25_the_main_loop_atemp1.it0000.001.001.data
(PID.TID 0000.0001)  MDS_READ_RL_VEC: irec =  00000001   00000672
(PID.TID 0000.0001)  MDSREADVECTOR: opening file: tapelev2_26_the_main_loop_precip0.it0000.001.001.data
(PID.TID 0000.0001)  MDS_READ_RL_VEC: irec =  00000001   00000672
(PID.TID 0000.0001)  MDSREADVECTOR: opening file: tapelev2_27_the_main_loop_precip1.it0000.001.001.data
(PID.TID 0000.0001)  MDS_READ_RL_VEC: irec =  00000001   00000672
(PID.TID 0000.0001)  MDSREADVECTOR: opening file: tapelev2_28_the_main_loop_lwflux0.it0000.001.001.data
(PID.TID 0000.0001)  MDS_READ_RL_VEC: irec =  00000001   00000672
(PID.TID 0000.0001)  MDSREADVECTOR: opening file: tapelev2_29_the_main_loop_lwflux1.it0000.001.001.data
(PID.TID 0000.0001)  MDS_READ_RL_VEC: irec =  00000001   00000672
(PID.TID 0000.0001)  MDSREADVECTOR: opening file: tapelev2_30_the_main_loop_swflux0.it0000.001.001.data
(PID.TID 0000.0001)  MDS_READ_RL_VEC: irec =  00000001   00000672
(PID.TID 0000.0001)  MDSREADVECTOR: opening file: tapelev2_31_the_main_loop_swflux1.it0000.001.001.data
(PID.TID 0000.0001)  MDS_READ_RL_VEC: irec =  00000001   00000672
(PID.TID 0000.0001)  MDSREADVECTOR: opening file: tapelev2_32_the_main_loop_evap.it0000.001.001.data
(PID.TID 0000.0001)  MDS_READ_RL_VEC: irec =  00000001   00000672
(PID.TID 0000.0001)  MDSREADVECTOR: opening file: tapelev2_33_the_main_loop_uwind0.it0000.001.001.data
(PID.TID 0000.0001)  MDS_READ_RL_VEC: irec =  00000001   00000672
(PID.TID 0000.0001)  MDSREADVECTOR: opening file: tapelev2_34_the_main_loop_uwind1.it0000.001.001.data
(PID.TID 0000.0001)  MDS_READ_RL_VEC: irec =  00000001   00000672
(PID.TID 0000.0001)  MDSREADVECTOR: opening file: tapelev2_35_the_main_loop_vwind0.it0000.001.001.data
(PID.TID 0000.0001)  MDS_READ_RL_VEC: irec =  00000001   00000672
(PID.TID 0000.0001)  MDSREADVECTOR: opening file: tapelev2_36_the_main_loop_vwind1.it0000.001.001.data
(PID.TID 0000.0001)  MDS_READ_RL_VEC: irec =  00000001   00000672
(PID.TID 0000.0001) 
(PID.TID 0000.0001)  exf_GetFFieldsRec: first, changed, fac:   T   F   0.50000000E+00
(PID.TID 0000.0001)  exf_GetFFieldsRec:      count0, count1:   1   2
(PID.TID 0000.0001) 
(PID.TID 0000.0001)  MDSREADFIELD: opening global file: u10m.labsea79
(PID.TID 0000.0001)  MDSREADFIELD: opening global file: u10m.labsea79
(PID.TID 0000.0001) 
(PID.TID 0000.0001)  exf_GetFFieldsRec: first, changed, fac:   T   F   0.50000000E+00
(PID.TID 0000.0001)  exf_GetFFieldsRec:      count0, count1:   1   2
(PID.TID 0000.0001) 
(PID.TID 0000.0001)  MDSREADFIELD: opening global file: v10m.labsea79
(PID.TID 0000.0001)  MDSREADFIELD: opening global file: v10m.labsea79
(PID.TID 0000.0001)  MDSREADFIELD: opening file: xx_uwind.0000000000.001.001.data
(PID.TID 0000.0001)  MDSREADFIELD: opening file: xx_uwind.0000000000.001.001.data
(PID.TID 0000.0001)  MDSREADFIELD: opening file: xx_vwind.0000000000.001.001.data
(PID.TID 0000.0001)  MDSREADFIELD: opening file: xx_vwind.0000000000.001.001.data
(PID.TID 0000.0001) 
(PID.TID 0000.0001)  exf_GetFFieldsRec: first, changed, fac:   T   F   0.50000000E+00
(PID.TID 0000.0001)  exf_GetFFieldsRec:      count0, count1:   1   2
(PID.TID 0000.0001) 
(PID.TID 0000.0001)  MDSREADFIELD: opening global file: tair.labsea1979
(PID.TID 0000.0001)  MDSREADFIELD: opening global file: tair.labsea1979
(PID.TID 0000.0001) 
(PID.TID 0000.0001)  exf_GetFFieldsRec: first, changed, fac:   T   F   0.50000000E+00
(PID.TID 0000.0001)  exf_GetFFieldsRec:      count0, count1:   1   2
(PID.TID 0000.0001) 
(PID.TID 0000.0001)  MDSREADFIELD: opening global file: qa.labsea1979
(PID.TID 0000.0001)  MDSREADFIELD: opening global file: qa.labsea1979
(PID.TID 0000.0001) 
(PID.TID 0000.0001)  exf_GetFFieldsRec: first, changed, fac:   T   F   0.50000000E+00
(PID.TID 0000.0001)  exf_GetFFieldsRec:      count0, count1:   1   2
(PID.TID 0000.0001) 
(PID.TID 0000.0001)  MDSREADFIELD: opening global file: prate.labsea1979
(PID.TID 0000.0001)  MDSREADFIELD: opening global file: prate.labsea1979
(PID.TID 0000.0001)  MDSREADFIELD: opening file: xx_atemp.0000000000.001.001.data
(PID.TID 0000.0001)  MDSREADFIELD: opening file: xx_atemp.0000000000.001.001.data
(PID.TID 0000.0001)  MDSREADFIELD: opening file: xx_aqh.0000000000.001.001.data
(PID.TID 0000.0001)  MDSREADFIELD: opening file: xx_aqh.0000000000.001.001.data
(PID.TID 0000.0001) 
(PID.TID 0000.0001)  exf_GetFFieldsRec: first, changed, fac:   T   F   0.50000000E+00
(PID.TID 0000.0001)  exf_GetFFieldsRec:      count0, count1:   1   2
(PID.TID 0000.0001) 
(PID.TID 0000.0001)  MDSREADFIELD: opening global file: fsh.labsea1979
(PID.TID 0000.0001)  MDSREADFIELD: opening global file: fsh.labsea1979
(PID.TID 0000.0001) 
(PID.TID 0000.0001)  exf_GetFFieldsRec: first, changed, fac:   T   F   0.50000000E+00
(PID.TID 0000.0001)  exf_GetFFieldsRec:      count0, count1:   1   2
(PID.TID 0000.0001) 
(PID.TID 0000.0001)  MDSREADFIELD: opening global file: flo.labsea1979
(PID.TID 0000.0001)  MDSREADFIELD: opening global file: flo.labsea1979
 cg2d: Sum(rhs),rhsMax =   1.95590071916385E-16  1.00807802167630E+00
(PID.TID 0000.0001)                    cg2d_init_res =    1.61521300655486E+00
(PID.TID 0000.0001)                       cg2d_iters =    47
(PID.TID 0000.0001)                         cg2d_res =    5.70138941994743E-14
(PID.TID 0000.0001) 
(PID.TID 0000.0001)  exf_GetFFieldsRec: first, changed, fac:   F   F   0.49863388E+00
(PID.TID 0000.0001)  exf_GetFFieldsRec:      count0, count1:   1   2
(PID.TID 0000.0001) 
(PID.TID 0000.0001) 
(PID.TID 0000.0001)  exf_GetFFieldsRec: first, changed, fac:   F   F   0.49863388E+00
(PID.TID 0000.0001)  exf_GetFFieldsRec:      count0, count1:   1   2
(PID.TID 0000.0001) 
(PID.TID 0000.0001)  MDSREADFIELD: opening file: xx_uwind.0000000000.001.001.data
(PID.TID 0000.0001)  MDSREADFIELD: opening file: xx_uwind.0000000000.001.001.data
(PID.TID 0000.0001)  MDSREADFIELD: opening file: xx_vwind.0000000000.001.001.data
(PID.TID 0000.0001)  MDSREADFIELD: opening file: xx_vwind.0000000000.001.001.data
(PID.TID 0000.0001) 
(PID.TID 0000.0001)  exf_GetFFieldsRec: first, changed, fac:   F   F   0.49863388E+00
(PID.TID 0000.0001)  exf_GetFFieldsRec:      count0, count1:   1   2
(PID.TID 0000.0001) 
(PID.TID 0000.0001) 
(PID.TID 0000.0001)  exf_GetFFieldsRec: first, changed, fac:   F   F   0.49863388E+00
(PID.TID 0000.0001)  exf_GetFFieldsRec:      count0, count1:   1   2
(PID.TID 0000.0001) 
(PID.TID 0000.0001) 
(PID.TID 0000.0001)  exf_GetFFieldsRec: first, changed, fac:   F   F   0.49863388E+00
(PID.TID 0000.0001)  exf_GetFFieldsRec:      count0, count1:   1   2
(PID.TID 0000.0001) 
(PID.TID 0000.0001)  MDSREADFIELD: opening file: xx_atemp.0000000000.001.001.data
(PID.TID 0000.0001)  MDSREADFIELD: opening file: xx_atemp.0000000000.001.001.data
(PID.TID 0000.0001)  MDSREADFIELD: opening file: xx_aqh.0000000000.001.001.data
(PID.TID 0000.0001)  MDSREADFIELD: opening file: xx_aqh.0000000000.001.001.data
(PID.TID 0000.0001) 
(PID.TID 0000.0001)  exf_GetFFieldsRec: first, changed, fac:   F   F   0.49863388E+00
(PID.TID 0000.0001)  exf_GetFFieldsRec:      count0, count1:   1   2
(PID.TID 0000.0001) 
(PID.TID 0000.0001) 
(PID.TID 0000.0001)  exf_GetFFieldsRec: first, changed, fac:   F   F   0.49863388E+00
(PID.TID 0000.0001)  exf_GetFFieldsRec:      count0, count1:   1   2
(PID.TID 0000.0001) 
 cg2d: Sum(rhs),rhsMax =   7.37474317724640E-16  1.23585471329616E+00
(PID.TID 0000.0001)                    cg2d_init_res =    3.48544561450945E-01
(PID.TID 0000.0001)                       cg2d_iters =    45
(PID.TID 0000.0001)                         cg2d_res =    6.49477568692734E-14
(PID.TID 0000.0001) 
(PID.TID 0000.0001)  exf_GetFFieldsRec: first, changed, fac:   F   F   0.49726776E+00
(PID.TID 0000.0001)  exf_GetFFieldsRec:      count0, count1:   1   2
(PID.TID 0000.0001) 
(PID.TID 0000.0001) 
(PID.TID 0000.0001)  exf_GetFFieldsRec: first, changed, fac:   F   F   0.49726776E+00
(PID.TID 0000.0001)  exf_GetFFieldsRec:      count0, count1:   1   2
(PID.TID 0000.0001) 
(PID.TID 0000.0001)  MDSREADFIELD: opening file: xx_uwind.0000000000.001.001.data
(PID.TID 0000.0001)  MDSREADFIELD: opening file: xx_uwind.0000000000.001.001.data
(PID.TID 0000.0001)  MDSREADFIELD: opening file: xx_vwind.0000000000.001.001.data
(PID.TID 0000.0001)  MDSREADFIELD: opening file: xx_vwind.0000000000.001.001.data
(PID.TID 0000.0001) 
(PID.TID 0000.0001)  exf_GetFFieldsRec: first, changed, fac:   F   F   0.49726776E+00
(PID.TID 0000.0001)  exf_GetFFieldsRec:      count0, count1:   1   2
(PID.TID 0000.0001) 
(PID.TID 0000.0001) 
(PID.TID 0000.0001)  exf_GetFFieldsRec: first, changed, fac:   F   F   0.49726776E+00
(PID.TID 0000.0001)  exf_GetFFieldsRec:      count0, count1:   1   2
(PID.TID 0000.0001) 
(PID.TID 0000.0001) 
(PID.TID 0000.0001)  exf_GetFFieldsRec: first, changed, fac:   F   F   0.49726776E+00
(PID.TID 0000.0001)  exf_GetFFieldsRec:      count0, count1:   1   2
(PID.TID 0000.0001) 
(PID.TID 0000.0001)  MDSREADFIELD: opening file: xx_atemp.0000000000.001.001.data
(PID.TID 0000.0001)  MDSREADFIELD: opening file: xx_atemp.0000000000.001.001.data
(PID.TID 0000.0001)  MDSREADFIELD: opening file: xx_aqh.0000000000.001.001.data
(PID.TID 0000.0001)  MDSREADFIELD: opening file: xx_aqh.0000000000.001.001.data
(PID.TID 0000.0001) 
(PID.TID 0000.0001)  exf_GetFFieldsRec: first, changed, fac:   F   F   0.49726776E+00
(PID.TID 0000.0001)  exf_GetFFieldsRec:      count0, count1:   1   2
(PID.TID 0000.0001) 
(PID.TID 0000.0001) 
(PID.TID 0000.0001)  exf_GetFFieldsRec: first, changed, fac:   F   F   0.49726776E+00
(PID.TID 0000.0001)  exf_GetFFieldsRec:      count0, count1:   1   2
(PID.TID 0000.0001) 
 cg2d: Sum(rhs),rhsMax =   6.20553955443803E-15  1.25438452343302E+00
(PID.TID 0000.0001)                    cg2d_init_res =    2.36078257971889E-01
(PID.TID 0000.0001)                       cg2d_iters =    45
(PID.TID 0000.0001)                         cg2d_res =    6.62546240702124E-14
(PID.TID 0000.0001) 
(PID.TID 0000.0001)  exf_GetFFieldsRec: first, changed, fac:   F   F   0.49590164E+00
(PID.TID 0000.0001)  exf_GetFFieldsRec:      count0, count1:   1   2
(PID.TID 0000.0001) 
(PID.TID 0000.0001) 
(PID.TID 0000.0001)  exf_GetFFieldsRec: first, changed, fac:   F   F   0.49590164E+00
(PID.TID 0000.0001)  exf_GetFFieldsRec:      count0, count1:   1   2
(PID.TID 0000.0001) 
(PID.TID 0000.0001)  MDSREADFIELD: opening file: xx_uwind.0000000000.001.001.data
(PID.TID 0000.0001)  MDSREADFIELD: opening file: xx_uwind.0000000000.001.001.data
(PID.TID 0000.0001)  MDSREADFIELD: opening file: xx_vwind.0000000000.001.001.data
(PID.TID 0000.0001)  MDSREADFIELD: opening file: xx_vwind.0000000000.001.001.data
(PID.TID 0000.0001) 
(PID.TID 0000.0001)  exf_GetFFieldsRec: first, changed, fac:   F   F   0.49590164E+00
(PID.TID 0000.0001)  exf_GetFFieldsRec:      count0, count1:   1   2
(PID.TID 0000.0001) 
(PID.TID 0000.0001) 
(PID.TID 0000.0001)  exf_GetFFieldsRec: first, changed, fac:   F   F   0.49590164E+00
(PID.TID 0000.0001)  exf_GetFFieldsRec:      count0, count1:   1   2
(PID.TID 0000.0001) 
(PID.TID 0000.0001) 
(PID.TID 0000.0001)  exf_GetFFieldsRec: first, changed, fac:   F   F   0.49590164E+00
(PID.TID 0000.0001)  exf_GetFFieldsRec:      count0, count1:   1   2
(PID.TID 0000.0001) 
(PID.TID 0000.0001)  MDSREADFIELD: opening file: xx_atemp.0000000000.001.001.data
(PID.TID 0000.0001)  MDSREADFIELD: opening file: xx_atemp.0000000000.001.001.data
(PID.TID 0000.0001)  MDSREADFIELD: opening file: xx_aqh.0000000000.001.001.data
(PID.TID 0000.0001)  MDSREADFIELD: opening file: xx_aqh.0000000000.001.001.data
(PID.TID 0000.0001) 
(PID.TID 0000.0001)  exf_GetFFieldsRec: first, changed, fac:   F   F   0.49590164E+00
(PID.TID 0000.0001)  exf_GetFFieldsRec:      count0, count1:   1   2
(PID.TID 0000.0001) 
(PID.TID 0000.0001) 
(PID.TID 0000.0001)  exf_GetFFieldsRec: first, changed, fac:   F   F   0.49590164E+00
(PID.TID 0000.0001)  exf_GetFFieldsRec:      count0, count1:   1   2
(PID.TID 0000.0001) 
 cg2d: Sum(rhs),rhsMax =   3.20620266447413E-15  1.25494322187447E+00
(PID.TID 0000.0001)                    cg2d_init_res =    1.82553144014713E-01
(PID.TID 0000.0001)                       cg2d_iters =    45
(PID.TID 0000.0001)                         cg2d_res =    5.12415163303431E-14
(PID.TID 0000.0001)  MDSREADVECTOR: opening file: tapelev2_1_the_main_loop_gsnm1.it0000.001.001.data
(PID.TID 0000.0001)  MDS_READ_RL_VEC: irec =  00000001   00015456
(PID.TID 0000.0001)  MDSREADVECTOR: opening file: tapelev2_2_the_main_loop_gtnm1.it0000.001.001.data
(PID.TID 0000.0001)  MDS_READ_RL_VEC: irec =  00000001   00015456
(PID.TID 0000.0001)  MDSREADVECTOR: opening file: tapelev2_3_the_main_loop_gunm1.it0000.001.001.data
(PID.TID 0000.0001)  MDS_READ_RL_VEC: irec =  00000001   00015456
(PID.TID 0000.0001)  MDSREADVECTOR: opening file: tapelev2_4_the_main_loop_gvnm1.it0000.001.001.data
(PID.TID 0000.0001)  MDS_READ_RL_VEC: irec =  00000001   00015456
(PID.TID 0000.0001)  MDSREADVECTOR: opening file: tapelev2_5_the_main_loop_theta.it0000.001.001.data
(PID.TID 0000.0001)  MDS_READ_RL_VEC: irec =  00000001   00015456
(PID.TID 0000.0001)  MDSREADVECTOR: opening file: tapelev2_6_the_main_loop_salt.it0000.001.001.data
(PID.TID 0000.0001)  MDS_READ_RL_VEC: irec =  00000001   00015456
(PID.TID 0000.0001)  MDSREADVECTOR: opening file: tapelev2_7_the_main_loop_uvel.it0000.001.001.data
(PID.TID 0000.0001)  MDS_READ_RL_VEC: irec =  00000001   00015456
(PID.TID 0000.0001)  MDSREADVECTOR: opening file: tapelev2_8_the_main_loop_vvel.it0000.001.001.data
(PID.TID 0000.0001)  MDS_READ_RL_VEC: irec =  00000001   00015456
(PID.TID 0000.0001)  MDSREADVECTOR: opening file: tapelev2_9_the_main_loop_wvel.it0000.001.001.data
(PID.TID 0000.0001)  MDS_READ_RL_VEC: irec =  00000001   00015456
(PID.TID 0000.0001)  MDSREADVECTOR: opening file: tapelev2_10_the_main_loop_etan.it0000.001.001.data
(PID.TID 0000.0001)  MDS_READ_RL_VEC: irec =  00000001   00000672
(PID.TID 0000.0001)  MDSREADVECTOR: opening file: tapelev2_11_the_main_loop_gu.it0000.001.001.data
(PID.TID 0000.0001)  MDS_READ_RL_VEC: irec =  00000001   00015456
(PID.TID 0000.0001)  MDSREADVECTOR: opening file: tapelev2_12_the_main_loop_gv.it0000.001.001.data
(PID.TID 0000.0001)  MDS_READ_RL_VEC: irec =  00000001   00015456
(PID.TID 0000.0001)  MDSREADVECTOR: opening file: tapelev2_13_the_main_loop_uveld.it0000.001.001.data
(PID.TID 0000.0001)  MDS_READ_RL_VEC: irec =  00000001   00015456
(PID.TID 0000.0001)  MDSREADVECTOR: opening file: tapelev2_14_the_main_loop_vveld.it0000.001.001.data
(PID.TID 0000.0001)  MDS_READ_RL_VEC: irec =  00000001   00015456
(PID.TID 0000.0001)  MDSREADVECTOR: opening file: tapelev2_15_the_main_loop_etanm1.it0000.001.001.data
(PID.TID 0000.0001)  MDS_READ_RL_VEC: irec =  00000001   00000672
(PID.TID 0000.0001)  MDSREADVECTOR: opening file: tapelev2_16_the_main_loop_unm1.it0000.001.001.data
(PID.TID 0000.0001)  MDS_READ_RL_VEC: irec =  00000001   00015456
(PID.TID 0000.0001)  MDSREADVECTOR: opening file: tapelev2_17_the_main_loop_vnm1.it0000.001.001.data
(PID.TID 0000.0001)  MDS_READ_RL_VEC: irec =  00000001   00015456
(PID.TID 0000.0001)  MDSREADVECTOR: opening file: tapelev2_18_the_main_loop_gucd.it0000.001.001.data
(PID.TID 0000.0001)  MDS_READ_RL_VEC: irec =  00000001   00015456
(PID.TID 0000.0001)  MDSREADVECTOR: opening file: tapelev2_19_the_main_loop_gvcd.it0000.001.001.data
(PID.TID 0000.0001)  MDS_READ_RL_VEC: irec =  00000001   00015456
(PID.TID 0000.0001)  MDSREADVECTOR: opening file: tapelev2_20_the_main_loop_etah.it0000.001.001.data
(PID.TID 0000.0001)  MDS_READ_RL_VEC: irec =  00000001   00000672
(PID.TID 0000.0001)  MDSREADVECTOR: opening file: tapelev2_21_the_main_loop_hdivflow.it0000.001.001.data
(PID.TID 0000.0001)  MDS_READ_RL_VEC: irec =  00000001   00000672
(PID.TID 0000.0001)  MDSREADVECTOR: opening file: tapelev2_22_the_main_loop_aqh0.it0000.001.001.data
(PID.TID 0000.0001)  MDS_READ_RL_VEC: irec =  00000001   00000672
(PID.TID 0000.0001)  MDSREADVECTOR: opening file: tapelev2_23_the_main_loop_aqh1.it0000.001.001.data
(PID.TID 0000.0001)  MDS_READ_RL_VEC: irec =  00000001   00000672
(PID.TID 0000.0001)  MDSREADVECTOR: opening file: tapelev2_24_the_main_loop_atemp0.it0000.001.001.data
(PID.TID 0000.0001)  MDS_READ_RL_VEC: irec =  00000001   00000672
(PID.TID 0000.0001)  MDSREADVECTOR: opening file: tapelev2_25_the_main_loop_atemp1.it0000.001.001.data
(PID.TID 0000.0001)  MDS_READ_RL_VEC: irec =  00000001   00000672
(PID.TID 0000.0001)  MDSREADVECTOR: opening file: tapelev2_26_the_main_loop_precip0.it0000.001.001.data
(PID.TID 0000.0001)  MDS_READ_RL_VEC: irec =  00000001   00000672
(PID.TID 0000.0001)  MDSREADVECTOR: opening file: tapelev2_27_the_main_loop_precip1.it0000.001.001.data
(PID.TID 0000.0001)  MDS_READ_RL_VEC: irec =  00000001   00000672
(PID.TID 0000.0001)  MDSREADVECTOR: opening file: tapelev2_28_the_main_loop_lwflux0.it0000.001.001.data
(PID.TID 0000.0001)  MDS_READ_RL_VEC: irec =  00000001   00000672
(PID.TID 0000.0001)  MDSREADVECTOR: opening file: tapelev2_29_the_main_loop_lwflux1.it0000.001.001.data
(PID.TID 0000.0001)  MDS_READ_RL_VEC: irec =  00000001   00000672
(PID.TID 0000.0001)  MDSREADVECTOR: opening file: tapelev2_30_the_main_loop_swflux0.it0000.001.001.data
(PID.TID 0000.0001)  MDS_READ_RL_VEC: irec =  00000001   00000672
(PID.TID 0000.0001)  MDSREADVECTOR: opening file: tapelev2_31_the_main_loop_swflux1.it0000.001.001.data
(PID.TID 0000.0001)  MDS_READ_RL_VEC: irec =  00000001   00000672
(PID.TID 0000.0001)  MDSREADVECTOR: opening file: tapelev2_32_the_main_loop_evap.it0000.001.001.data
(PID.TID 0000.0001)  MDS_READ_RL_VEC: irec =  00000001   00000672
(PID.TID 0000.0001)  MDSREADVECTOR: opening file: tapelev2_33_the_main_loop_uwind0.it0000.001.001.data
(PID.TID 0000.0001)  MDS_READ_RL_VEC: irec =  00000001   00000672
(PID.TID 0000.0001)  MDSREADVECTOR: opening file: tapelev2_34_the_main_loop_uwind1.it0000.001.001.data
(PID.TID 0000.0001)  MDS_READ_RL_VEC: irec =  00000001   00000672
(PID.TID 0000.0001)  MDSREADVECTOR: opening file: tapelev2_35_the_main_loop_vwind0.it0000.001.001.data
(PID.TID 0000.0001)  MDS_READ_RL_VEC: irec =  00000001   00000672
(PID.TID 0000.0001)  MDSREADVECTOR: opening file: tapelev2_36_the_main_loop_vwind1.it0000.001.001.data
(PID.TID 0000.0001)  MDS_READ_RL_VEC: irec =  00000001   00000672
(PID.TID 0000.0001) 
(PID.TID 0000.0001)  exf_GetFFieldsRec: first, changed, fac:   T   F   0.50000000E+00
(PID.TID 0000.0001)  exf_GetFFieldsRec:      count0, count1:   1   2
(PID.TID 0000.0001) 
(PID.TID 0000.0001)  MDSREADFIELD: opening global file: u10m.labsea79
(PID.TID 0000.0001)  MDSREADFIELD: opening global file: u10m.labsea79
(PID.TID 0000.0001) 
(PID.TID 0000.0001)  exf_GetFFieldsRec: first, changed, fac:   T   F   0.50000000E+00
(PID.TID 0000.0001)  exf_GetFFieldsRec:      count0, count1:   1   2
(PID.TID 0000.0001) 
(PID.TID 0000.0001)  MDSREADFIELD: opening global file: v10m.labsea79
(PID.TID 0000.0001)  MDSREADFIELD: opening global file: v10m.labsea79
(PID.TID 0000.0001)  MDSREADFIELD: opening file: xx_uwind.0000000000.001.001.data
(PID.TID 0000.0001)  MDSREADFIELD: opening file: xx_uwind.0000000000.001.001.data
(PID.TID 0000.0001)  MDSREADFIELD: opening file: xx_vwind.0000000000.001.001.data
(PID.TID 0000.0001)  MDSREADFIELD: opening file: xx_vwind.0000000000.001.001.data
(PID.TID 0000.0001) 
(PID.TID 0000.0001)  exf_GetFFieldsRec: first, changed, fac:   T   F   0.50000000E+00
(PID.TID 0000.0001)  exf_GetFFieldsRec:      count0, count1:   1   2
(PID.TID 0000.0001) 
(PID.TID 0000.0001)  MDSREADFIELD: opening global file: tair.labsea1979
(PID.TID 0000.0001)  MDSREADFIELD: opening global file: tair.labsea1979
(PID.TID 0000.0001) 
(PID.TID 0000.0001)  exf_GetFFieldsRec: first, changed, fac:   T   F   0.50000000E+00
(PID.TID 0000.0001)  exf_GetFFieldsRec:      count0, count1:   1   2
(PID.TID 0000.0001) 
(PID.TID 0000.0001)  MDSREADFIELD: opening global file: qa.labsea1979
(PID.TID 0000.0001)  MDSREADFIELD: opening global file: qa.labsea1979
(PID.TID 0000.0001) 
(PID.TID 0000.0001)  exf_GetFFieldsRec: first, changed, fac:   T   F   0.50000000E+00
(PID.TID 0000.0001)  exf_GetFFieldsRec:      count0, count1:   1   2
(PID.TID 0000.0001) 
(PID.TID 0000.0001)  MDSREADFIELD: opening global file: prate.labsea1979
(PID.TID 0000.0001)  MDSREADFIELD: opening global file: prate.labsea1979
(PID.TID 0000.0001)  MDSREADFIELD: opening file: xx_atemp.0000000000.001.001.data
(PID.TID 0000.0001)  MDSREADFIELD: opening file: xx_atemp.0000000000.001.001.data
(PID.TID 0000.0001)  MDSREADFIELD: opening file: xx_aqh.0000000000.001.001.data
(PID.TID 0000.0001)  MDSREADFIELD: opening file: xx_aqh.0000000000.001.001.data
(PID.TID 0000.0001) 
(PID.TID 0000.0001)  exf_GetFFieldsRec: first, changed, fac:   T   F   0.50000000E+00
(PID.TID 0000.0001)  exf_GetFFieldsRec:      count0, count1:   1   2
(PID.TID 0000.0001) 
(PID.TID 0000.0001)  MDSREADFIELD: opening global file: fsh.labsea1979
(PID.TID 0000.0001)  MDSREADFIELD: opening global file: fsh.labsea1979
(PID.TID 0000.0001) 
(PID.TID 0000.0001)  exf_GetFFieldsRec: first, changed, fac:   T   F   0.50000000E+00
(PID.TID 0000.0001)  exf_GetFFieldsRec:      count0, count1:   1   2
(PID.TID 0000.0001) 
(PID.TID 0000.0001)  MDSREADFIELD: opening global file: flo.labsea1979
(PID.TID 0000.0001)  MDSREADFIELD: opening global file: flo.labsea1979
 cg2d: Sum(rhs),rhsMax =   1.95590071916385E-16  1.00807802167630E+00
(PID.TID 0000.0001)                    cg2d_init_res =    1.61521300655486E+00
(PID.TID 0000.0001)                       cg2d_iters =    47
(PID.TID 0000.0001)                         cg2d_res =    5.70138941994743E-14
(PID.TID 0000.0001) 
(PID.TID 0000.0001)  exf_GetFFieldsRec: first, changed, fac:   F   F   0.49863388E+00
(PID.TID 0000.0001)  exf_GetFFieldsRec:      count0, count1:   1   2
(PID.TID 0000.0001) 
(PID.TID 0000.0001) 
(PID.TID 0000.0001)  exf_GetFFieldsRec: first, changed, fac:   F   F   0.49863388E+00
(PID.TID 0000.0001)  exf_GetFFieldsRec:      count0, count1:   1   2
(PID.TID 0000.0001) 
(PID.TID 0000.0001)  MDSREADFIELD: opening file: xx_uwind.0000000000.001.001.data
(PID.TID 0000.0001)  MDSREADFIELD: opening file: xx_uwind.0000000000.001.001.data
(PID.TID 0000.0001)  MDSREADFIELD: opening file: xx_vwind.0000000000.001.001.data
(PID.TID 0000.0001)  MDSREADFIELD: opening file: xx_vwind.0000000000.001.001.data
(PID.TID 0000.0001) 
(PID.TID 0000.0001)  exf_GetFFieldsRec: first, changed, fac:   F   F   0.49863388E+00
(PID.TID 0000.0001)  exf_GetFFieldsRec:      count0, count1:   1   2
(PID.TID 0000.0001) 
(PID.TID 0000.0001) 
(PID.TID 0000.0001)  exf_GetFFieldsRec: first, changed, fac:   F   F   0.49863388E+00
(PID.TID 0000.0001)  exf_GetFFieldsRec:      count0, count1:   1   2
(PID.TID 0000.0001) 
(PID.TID 0000.0001) 
(PID.TID 0000.0001)  exf_GetFFieldsRec: first, changed, fac:   F   F   0.49863388E+00
(PID.TID 0000.0001)  exf_GetFFieldsRec:      count0, count1:   1   2
(PID.TID 0000.0001) 
(PID.TID 0000.0001)  MDSREADFIELD: opening file: xx_atemp.0000000000.001.001.data
(PID.TID 0000.0001)  MDSREADFIELD: opening file: xx_atemp.0000000000.001.001.data
(PID.TID 0000.0001)  MDSREADFIELD: opening file: xx_aqh.0000000000.001.001.data
(PID.TID 0000.0001)  MDSREADFIELD: opening file: xx_aqh.0000000000.001.001.data
(PID.TID 0000.0001) 
(PID.TID 0000.0001)  exf_GetFFieldsRec: first, changed, fac:   F   F   0.49863388E+00
(PID.TID 0000.0001)  exf_GetFFieldsRec:      count0, count1:   1   2
(PID.TID 0000.0001) 
(PID.TID 0000.0001) 
(PID.TID 0000.0001)  exf_GetFFieldsRec: first, changed, fac:   F   F   0.49863388E+00
(PID.TID 0000.0001)  exf_GetFFieldsRec:      count0, count1:   1   2
(PID.TID 0000.0001) 
 cg2d: Sum(rhs),rhsMax =   7.37474317724640E-16  1.23585471329616E+00
(PID.TID 0000.0001)                    cg2d_init_res =    3.48544561450945E-01
(PID.TID 0000.0001)                       cg2d_iters =    45
(PID.TID 0000.0001)                         cg2d_res =    6.49477568692734E-14
(PID.TID 0000.0001) 
(PID.TID 0000.0001)  exf_GetFFieldsRec: first, changed, fac:   F   F   0.49726776E+00
(PID.TID 0000.0001)  exf_GetFFieldsRec:      count0, count1:   1   2
(PID.TID 0000.0001) 
(PID.TID 0000.0001) 
(PID.TID 0000.0001)  exf_GetFFieldsRec: first, changed, fac:   F   F   0.49726776E+00
(PID.TID 0000.0001)  exf_GetFFieldsRec:      count0, count1:   1   2
(PID.TID 0000.0001) 
(PID.TID 0000.0001)  MDSREADFIELD: opening file: xx_uwind.0000000000.001.001.data
(PID.TID 0000.0001)  MDSREADFIELD: opening file: xx_uwind.0000000000.001.001.data
(PID.TID 0000.0001)  MDSREADFIELD: opening file: xx_vwind.0000000000.001.001.data
(PID.TID 0000.0001)  MDSREADFIELD: opening file: xx_vwind.0000000000.001.001.data
(PID.TID 0000.0001) 
(PID.TID 0000.0001)  exf_GetFFieldsRec: first, changed, fac:   F   F   0.49726776E+00
(PID.TID 0000.0001)  exf_GetFFieldsRec:      count0, count1:   1   2
(PID.TID 0000.0001) 
(PID.TID 0000.0001) 
(PID.TID 0000.0001)  exf_GetFFieldsRec: first, changed, fac:   F   F   0.49726776E+00
(PID.TID 0000.0001)  exf_GetFFieldsRec:      count0, count1:   1   2
(PID.TID 0000.0001) 
(PID.TID 0000.0001) 
(PID.TID 0000.0001)  exf_GetFFieldsRec: first, changed, fac:   F   F   0.49726776E+00
(PID.TID 0000.0001)  exf_GetFFieldsRec:      count0, count1:   1   2
(PID.TID 0000.0001) 
(PID.TID 0000.0001)  MDSREADFIELD: opening file: xx_atemp.0000000000.001.001.data
(PID.TID 0000.0001)  MDSREADFIELD: opening file: xx_atemp.0000000000.001.001.data
(PID.TID 0000.0001)  MDSREADFIELD: opening file: xx_aqh.0000000000.001.001.data
(PID.TID 0000.0001)  MDSREADFIELD: opening file: xx_aqh.0000000000.001.001.data
(PID.TID 0000.0001) 
(PID.TID 0000.0001)  exf_GetFFieldsRec: first, changed, fac:   F   F   0.49726776E+00
(PID.TID 0000.0001)  exf_GetFFieldsRec:      count0, count1:   1   2
(PID.TID 0000.0001) 
(PID.TID 0000.0001) 
(PID.TID 0000.0001)  exf_GetFFieldsRec: first, changed, fac:   F   F   0.49726776E+00
(PID.TID 0000.0001)  exf_GetFFieldsRec:      count0, count1:   1   2
(PID.TID 0000.0001) 
 cg2d: Sum(rhs),rhsMax =   6.20553955443803E-15  1.25438452343302E+00
(PID.TID 0000.0001)                    cg2d_init_res =    2.36078257971889E-01
(PID.TID 0000.0001)                       cg2d_iters =    45
(PID.TID 0000.0001)                         cg2d_res =    6.62546240702124E-14
(PID.TID 0000.0001) 
(PID.TID 0000.0001)  exf_GetFFieldsRec: first, changed, fac:   F   F   0.49590164E+00
(PID.TID 0000.0001)  exf_GetFFieldsRec:      count0, count1:   1   2
(PID.TID 0000.0001) 
(PID.TID 0000.0001) 
(PID.TID 0000.0001)  exf_GetFFieldsRec: first, changed, fac:   F   F   0.49590164E+00
(PID.TID 0000.0001)  exf_GetFFieldsRec:      count0, count1:   1   2
(PID.TID 0000.0001) 
(PID.TID 0000.0001)  MDSREADFIELD: opening file: xx_uwind.0000000000.001.001.data
(PID.TID 0000.0001)  MDSREADFIELD: opening file: xx_uwind.0000000000.001.001.data
(PID.TID 0000.0001)  MDSREADFIELD: opening file: xx_vwind.0000000000.001.001.data
(PID.TID 0000.0001)  MDSREADFIELD: opening file: xx_vwind.0000000000.001.001.data
(PID.TID 0000.0001) 
(PID.TID 0000.0001)  exf_GetFFieldsRec: first, changed, fac:   F   F   0.49590164E+00
(PID.TID 0000.0001)  exf_GetFFieldsRec:      count0, count1:   1   2
(PID.TID 0000.0001) 
(PID.TID 0000.0001) 
(PID.TID 0000.0001)  exf_GetFFieldsRec: first, changed, fac:   F   F   0.49590164E+00
(PID.TID 0000.0001)  exf_GetFFieldsRec:      count0, count1:   1   2
(PID.TID 0000.0001) 
(PID.TID 0000.0001) 
(PID.TID 0000.0001)  exf_GetFFieldsRec: first, changed, fac:   F   F   0.49590164E+00
(PID.TID 0000.0001)  exf_GetFFieldsRec:      count0, count1:   1   2
(PID.TID 0000.0001) 
(PID.TID 0000.0001)  MDSREADFIELD: opening file: xx_atemp.0000000000.001.001.data
(PID.TID 0000.0001)  MDSREADFIELD: opening file: xx_atemp.0000000000.001.001.data
(PID.TID 0000.0001)  MDSREADFIELD: opening file: xx_aqh.0000000000.001.001.data
(PID.TID 0000.0001)  MDSREADFIELD: opening file: xx_aqh.0000000000.001.001.data
(PID.TID 0000.0001) 
(PID.TID 0000.0001)  exf_GetFFieldsRec: first, changed, fac:   F   F   0.49590164E+00
(PID.TID 0000.0001)  exf_GetFFieldsRec:      count0, count1:   1   2
(PID.TID 0000.0001) 
(PID.TID 0000.0001) 
(PID.TID 0000.0001)  exf_GetFFieldsRec: first, changed, fac:   F   F   0.49590164E+00
(PID.TID 0000.0001)  exf_GetFFieldsRec:      count0, count1:   1   2
(PID.TID 0000.0001) 
 cg2d: Sum(rhs),rhsMax =   3.20620266447413E-15  1.25494322187447E+00
(PID.TID 0000.0001)                    cg2d_init_res =    1.82553144014713E-01
(PID.TID 0000.0001)                       cg2d_iters =    45
(PID.TID 0000.0001)                         cg2d_res =    5.12415163303431E-14
(PID.TID 0000.0001)  MDSREADVECTOR: opening file: tapelev2_1_the_main_loop_gsnm1.it0000.001.001.data
(PID.TID 0000.0001)  MDS_READ_RL_VEC: irec =  00000001   00015456
(PID.TID 0000.0001)  MDSREADVECTOR: opening file: tapelev2_2_the_main_loop_gtnm1.it0000.001.001.data
(PID.TID 0000.0001)  MDS_READ_RL_VEC: irec =  00000001   00015456
(PID.TID 0000.0001)  MDSREADVECTOR: opening file: tapelev2_3_the_main_loop_gunm1.it0000.001.001.data
(PID.TID 0000.0001)  MDS_READ_RL_VEC: irec =  00000001   00015456
(PID.TID 0000.0001)  MDSREADVECTOR: opening file: tapelev2_4_the_main_loop_gvnm1.it0000.001.001.data
(PID.TID 0000.0001)  MDS_READ_RL_VEC: irec =  00000001   00015456
(PID.TID 0000.0001)  MDSREADVECTOR: opening file: tapelev2_5_the_main_loop_theta.it0000.001.001.data
(PID.TID 0000.0001)  MDS_READ_RL_VEC: irec =  00000001   00015456
(PID.TID 0000.0001)  MDSREADVECTOR: opening file: tapelev2_6_the_main_loop_salt.it0000.001.001.data
(PID.TID 0000.0001)  MDS_READ_RL_VEC: irec =  00000001   00015456
(PID.TID 0000.0001)  MDSREADVECTOR: opening file: tapelev2_7_the_main_loop_uvel.it0000.001.001.data
(PID.TID 0000.0001)  MDS_READ_RL_VEC: irec =  00000001   00015456
(PID.TID 0000.0001)  MDSREADVECTOR: opening file: tapelev2_8_the_main_loop_vvel.it0000.001.001.data
(PID.TID 0000.0001)  MDS_READ_RL_VEC: irec =  00000001   00015456
(PID.TID 0000.0001)  MDSREADVECTOR: opening file: tapelev2_9_the_main_loop_wvel.it0000.001.001.data
(PID.TID 0000.0001)  MDS_READ_RL_VEC: irec =  00000001   00015456
(PID.TID 0000.0001)  MDSREADVECTOR: opening file: tapelev2_10_the_main_loop_etan.it0000.001.001.data
(PID.TID 0000.0001)  MDS_READ_RL_VEC: irec =  00000001   00000672
(PID.TID 0000.0001)  MDSREADVECTOR: opening file: tapelev2_11_the_main_loop_gu.it0000.001.001.data
(PID.TID 0000.0001)  MDS_READ_RL_VEC: irec =  00000001   00015456
(PID.TID 0000.0001)  MDSREADVECTOR: opening file: tapelev2_12_the_main_loop_gv.it0000.001.001.data
(PID.TID 0000.0001)  MDS_READ_RL_VEC: irec =  00000001   00015456
(PID.TID 0000.0001)  MDSREADVECTOR: opening file: tapelev2_13_the_main_loop_uveld.it0000.001.001.data
(PID.TID 0000.0001)  MDS_READ_RL_VEC: irec =  00000001   00015456
(PID.TID 0000.0001)  MDSREADVECTOR: opening file: tapelev2_14_the_main_loop_vveld.it0000.001.001.data
(PID.TID 0000.0001)  MDS_READ_RL_VEC: irec =  00000001   00015456
(PID.TID 0000.0001)  MDSREADVECTOR: opening file: tapelev2_15_the_main_loop_etanm1.it0000.001.001.data
(PID.TID 0000.0001)  MDS_READ_RL_VEC: irec =  00000001   00000672
(PID.TID 0000.0001)  MDSREADVECTOR: opening file: tapelev2_16_the_main_loop_unm1.it0000.001.001.data
(PID.TID 0000.0001)  MDS_READ_RL_VEC: irec =  00000001   00015456
(PID.TID 0000.0001)  MDSREADVECTOR: opening file: tapelev2_17_the_main_loop_vnm1.it0000.001.001.data
(PID.TID 0000.0001)  MDS_READ_RL_VEC: irec =  00000001   00015456
(PID.TID 0000.0001)  MDSREADVECTOR: opening file: tapelev2_18_the_main_loop_gucd.it0000.001.001.data
(PID.TID 0000.0001)  MDS_READ_RL_VEC: irec =  00000001   00015456
(PID.TID 0000.0001)  MDSREADVECTOR: opening file: tapelev2_19_the_main_loop_gvcd.it0000.001.001.data
(PID.TID 0000.0001)  MDS_READ_RL_VEC: irec =  00000001   00015456
(PID.TID 0000.0001)  MDSREADVECTOR: opening file: tapelev2_20_the_main_loop_etah.it0000.001.001.data
(PID.TID 0000.0001)  MDS_READ_RL_VEC: irec =  00000001   00000672
(PID.TID 0000.0001)  MDSREADVECTOR: opening file: tapelev2_21_the_main_loop_hdivflow.it0000.001.001.data
(PID.TID 0000.0001)  MDS_READ_RL_VEC: irec =  00000001   00000672
(PID.TID 0000.0001)  MDSREADVECTOR: opening file: tapelev2_22_the_main_loop_aqh0.it0000.001.001.data
(PID.TID 0000.0001)  MDS_READ_RL_VEC: irec =  00000001   00000672
(PID.TID 0000.0001)  MDSREADVECTOR: opening file: tapelev2_23_the_main_loop_aqh1.it0000.001.001.data
(PID.TID 0000.0001)  MDS_READ_RL_VEC: irec =  00000001   00000672
(PID.TID 0000.0001)  MDSREADVECTOR: opening file: tapelev2_24_the_main_loop_atemp0.it0000.001.001.data
(PID.TID 0000.0001)  MDS_READ_RL_VEC: irec =  00000001   00000672
(PID.TID 0000.0001)  MDSREADVECTOR: opening file: tapelev2_25_the_main_loop_atemp1.it0000.001.001.data
(PID.TID 0000.0001)  MDS_READ_RL_VEC: irec =  00000001   00000672
(PID.TID 0000.0001)  MDSREADVECTOR: opening file: tapelev2_26_the_main_loop_precip0.it0000.001.001.data
(PID.TID 0000.0001)  MDS_READ_RL_VEC: irec =  00000001   00000672
(PID.TID 0000.0001)  MDSREADVECTOR: opening file: tapelev2_27_the_main_loop_precip1.it0000.001.001.data
(PID.TID 0000.0001)  MDS_READ_RL_VEC: irec =  00000001   00000672
(PID.TID 0000.0001)  MDSREADVECTOR: opening file: tapelev2_28_the_main_loop_lwflux0.it0000.001.001.data
(PID.TID 0000.0001)  MDS_READ_RL_VEC: irec =  00000001   00000672
(PID.TID 0000.0001)  MDSREADVECTOR: opening file: tapelev2_29_the_main_loop_lwflux1.it0000.001.001.data
(PID.TID 0000.0001)  MDS_READ_RL_VEC: irec =  00000001   00000672
(PID.TID 0000.0001)  MDSREADVECTOR: opening file: tapelev2_30_the_main_loop_swflux0.it0000.001.001.data
(PID.TID 0000.0001)  MDS_READ_RL_VEC: irec =  00000001   00000672
(PID.TID 0000.0001)  MDSREADVECTOR: opening file: tapelev2_31_the_main_loop_swflux1.it0000.001.001.data
(PID.TID 0000.0001)  MDS_READ_RL_VEC: irec =  00000001   00000672
(PID.TID 0000.0001)  MDSREADVECTOR: opening file: tapelev2_32_the_main_loop_evap.it0000.001.001.data
(PID.TID 0000.0001)  MDS_READ_RL_VEC: irec =  00000001   00000672
(PID.TID 0000.0001)  MDSREADVECTOR: opening file: tapelev2_33_the_main_loop_uwind0.it0000.001.001.data
(PID.TID 0000.0001)  MDS_READ_RL_VEC: irec =  00000001   00000672
(PID.TID 0000.0001)  MDSREADVECTOR: opening file: tapelev2_34_the_main_loop_uwind1.it0000.001.001.data
(PID.TID 0000.0001)  MDS_READ_RL_VEC: irec =  00000001   00000672
(PID.TID 0000.0001)  MDSREADVECTOR: opening file: tapelev2_35_the_main_loop_vwind0.it0000.001.001.data
(PID.TID 0000.0001)  MDS_READ_RL_VEC: irec =  00000001   00000672
(PID.TID 0000.0001)  MDSREADVECTOR: opening file: tapelev2_36_the_main_loop_vwind1.it0000.001.001.data
(PID.TID 0000.0001)  MDS_READ_RL_VEC: irec =  00000001   00000672
(PID.TID 0000.0001) 
(PID.TID 0000.0001)  exf_GetFFieldsRec: first, changed, fac:   T   F   0.50000000E+00
(PID.TID 0000.0001)  exf_GetFFieldsRec:      count0, count1:   1   2
(PID.TID 0000.0001) 
(PID.TID 0000.0001)  MDSREADFIELD: opening global file: u10m.labsea79
(PID.TID 0000.0001)  MDSREADFIELD: opening global file: u10m.labsea79
(PID.TID 0000.0001) 
(PID.TID 0000.0001)  exf_GetFFieldsRec: first, changed, fac:   T   F   0.50000000E+00
(PID.TID 0000.0001)  exf_GetFFieldsRec:      count0, count1:   1   2
(PID.TID 0000.0001) 
(PID.TID 0000.0001)  MDSREADFIELD: opening global file: v10m.labsea79
(PID.TID 0000.0001)  MDSREADFIELD: opening global file: v10m.labsea79
(PID.TID 0000.0001)  MDSREADFIELD: opening file: xx_uwind.0000000000.001.001.data
(PID.TID 0000.0001)  MDSREADFIELD: opening file: xx_uwind.0000000000.001.001.data
(PID.TID 0000.0001)  MDSREADFIELD: opening file: xx_vwind.0000000000.001.001.data
(PID.TID 0000.0001)  MDSREADFIELD: opening file: xx_vwind.0000000000.001.001.data
(PID.TID 0000.0001) 
(PID.TID 0000.0001)  exf_GetFFieldsRec: first, changed, fac:   T   F   0.50000000E+00
(PID.TID 0000.0001)  exf_GetFFieldsRec:      count0, count1:   1   2
(PID.TID 0000.0001) 
(PID.TID 0000.0001)  MDSREADFIELD: opening global file: tair.labsea1979
(PID.TID 0000.0001)  MDSREADFIELD: opening global file: tair.labsea1979
(PID.TID 0000.0001) 
(PID.TID 0000.0001)  exf_GetFFieldsRec: first, changed, fac:   T   F   0.50000000E+00
(PID.TID 0000.0001)  exf_GetFFieldsRec:      count0, count1:   1   2
(PID.TID 0000.0001) 
(PID.TID 0000.0001)  MDSREADFIELD: opening global file: qa.labsea1979
(PID.TID 0000.0001)  MDSREADFIELD: opening global file: qa.labsea1979
(PID.TID 0000.0001) 
(PID.TID 0000.0001)  exf_GetFFieldsRec: first, changed, fac:   T   F   0.50000000E+00
(PID.TID 0000.0001)  exf_GetFFieldsRec:      count0, count1:   1   2
(PID.TID 0000.0001) 
(PID.TID 0000.0001)  MDSREADFIELD: opening global file: prate.labsea1979
(PID.TID 0000.0001)  MDSREADFIELD: opening global file: prate.labsea1979
(PID.TID 0000.0001)  MDSREADFIELD: opening file: xx_atemp.0000000000.001.001.data
(PID.TID 0000.0001)  MDSREADFIELD: opening file: xx_atemp.0000000000.001.001.data
(PID.TID 0000.0001)  MDSREADFIELD: opening file: xx_aqh.0000000000.001.001.data
(PID.TID 0000.0001)  MDSREADFIELD: opening file: xx_aqh.0000000000.001.001.data
(PID.TID 0000.0001) 
(PID.TID 0000.0001)  exf_GetFFieldsRec: first, changed, fac:   T   F   0.50000000E+00
(PID.TID 0000.0001)  exf_GetFFieldsRec:      count0, count1:   1   2
(PID.TID 0000.0001) 
(PID.TID 0000.0001)  MDSREADFIELD: opening global file: fsh.labsea1979
(PID.TID 0000.0001)  MDSREADFIELD: opening global file: fsh.labsea1979
(PID.TID 0000.0001) 
(PID.TID 0000.0001)  exf_GetFFieldsRec: first, changed, fac:   T   F   0.50000000E+00
(PID.TID 0000.0001)  exf_GetFFieldsRec:      count0, count1:   1   2
(PID.TID 0000.0001) 
(PID.TID 0000.0001)  MDSREADFIELD: opening global file: flo.labsea1979
(PID.TID 0000.0001)  MDSREADFIELD: opening global file: flo.labsea1979
 cg2d: Sum(rhs),rhsMax =   1.95590071916385E-16  1.00807802167630E+00
(PID.TID 0000.0001)                    cg2d_init_res =    1.61521300655486E+00
(PID.TID 0000.0001)                       cg2d_iters =    47
(PID.TID 0000.0001)                         cg2d_res =    5.70138941994743E-14
(PID.TID 0000.0001) 
(PID.TID 0000.0001)  exf_GetFFieldsRec: first, changed, fac:   F   F   0.49863388E+00
(PID.TID 0000.0001)  exf_GetFFieldsRec:      count0, count1:   1   2
(PID.TID 0000.0001) 
(PID.TID 0000.0001) 
(PID.TID 0000.0001)  exf_GetFFieldsRec: first, changed, fac:   F   F   0.49863388E+00
(PID.TID 0000.0001)  exf_GetFFieldsRec:      count0, count1:   1   2
(PID.TID 0000.0001) 
(PID.TID 0000.0001)  MDSREADFIELD: opening file: xx_uwind.0000000000.001.001.data
(PID.TID 0000.0001)  MDSREADFIELD: opening file: xx_uwind.0000000000.001.001.data
(PID.TID 0000.0001)  MDSREADFIELD: opening file: xx_vwind.0000000000.001.001.data
(PID.TID 0000.0001)  MDSREADFIELD: opening file: xx_vwind.0000000000.001.001.data
(PID.TID 0000.0001) 
(PID.TID 0000.0001)  exf_GetFFieldsRec: first, changed, fac:   F   F   0.49863388E+00
(PID.TID 0000.0001)  exf_GetFFieldsRec:      count0, count1:   1   2
(PID.TID 0000.0001) 
(PID.TID 0000.0001) 
(PID.TID 0000.0001)  exf_GetFFieldsRec: first, changed, fac:   F   F   0.49863388E+00
(PID.TID 0000.0001)  exf_GetFFieldsRec:      count0, count1:   1   2
(PID.TID 0000.0001) 
(PID.TID 0000.0001) 
(PID.TID 0000.0001)  exf_GetFFieldsRec: first, changed, fac:   F   F   0.49863388E+00
(PID.TID 0000.0001)  exf_GetFFieldsRec:      count0, count1:   1   2
(PID.TID 0000.0001) 
(PID.TID 0000.0001)  MDSREADFIELD: opening file: xx_atemp.0000000000.001.001.data
(PID.TID 0000.0001)  MDSREADFIELD: opening file: xx_atemp.0000000000.001.001.data
(PID.TID 0000.0001)  MDSREADFIELD: opening file: xx_aqh.0000000000.001.001.data
(PID.TID 0000.0001)  MDSREADFIELD: opening file: xx_aqh.0000000000.001.001.data
(PID.TID 0000.0001) 
(PID.TID 0000.0001)  exf_GetFFieldsRec: first, changed, fac:   F   F   0.49863388E+00
(PID.TID 0000.0001)  exf_GetFFieldsRec:      count0, count1:   1   2
(PID.TID 0000.0001) 
(PID.TID 0000.0001) 
(PID.TID 0000.0001)  exf_GetFFieldsRec: first, changed, fac:   F   F   0.49863388E+00
(PID.TID 0000.0001)  exf_GetFFieldsRec:      count0, count1:   1   2
(PID.TID 0000.0001) 
 cg2d: Sum(rhs),rhsMax =   7.37474317724640E-16  1.23585471329616E+00
(PID.TID 0000.0001)                    cg2d_init_res =    3.48544561450945E-01
(PID.TID 0000.0001)                       cg2d_iters =    45
(PID.TID 0000.0001)                         cg2d_res =    6.49477568692734E-14
(PID.TID 0000.0001) 
(PID.TID 0000.0001)  exf_GetFFieldsRec: first, changed, fac:   F   F   0.49726776E+00
(PID.TID 0000.0001)  exf_GetFFieldsRec:      count0, count1:   1   2
(PID.TID 0000.0001) 
(PID.TID 0000.0001) 
(PID.TID 0000.0001)  exf_GetFFieldsRec: first, changed, fac:   F   F   0.49726776E+00
(PID.TID 0000.0001)  exf_GetFFieldsRec:      count0, count1:   1   2
(PID.TID 0000.0001) 
(PID.TID 0000.0001)  MDSREADFIELD: opening file: xx_uwind.0000000000.001.001.data
(PID.TID 0000.0001)  MDSREADFIELD: opening file: xx_uwind.0000000000.001.001.data
(PID.TID 0000.0001)  MDSREADFIELD: opening file: xx_vwind.0000000000.001.001.data
(PID.TID 0000.0001)  MDSREADFIELD: opening file: xx_vwind.0000000000.001.001.data
(PID.TID 0000.0001) 
(PID.TID 0000.0001)  exf_GetFFieldsRec: first, changed, fac:   F   F   0.49726776E+00
(PID.TID 0000.0001)  exf_GetFFieldsRec:      count0, count1:   1   2
(PID.TID 0000.0001) 
(PID.TID 0000.0001) 
(PID.TID 0000.0001)  exf_GetFFieldsRec: first, changed, fac:   F   F   0.49726776E+00
(PID.TID 0000.0001)  exf_GetFFieldsRec:      count0, count1:   1   2
(PID.TID 0000.0001) 
(PID.TID 0000.0001) 
(PID.TID 0000.0001)  exf_GetFFieldsRec: first, changed, fac:   F   F   0.49726776E+00
(PID.TID 0000.0001)  exf_GetFFieldsRec:      count0, count1:   1   2
(PID.TID 0000.0001) 
(PID.TID 0000.0001)  MDSREADFIELD: opening file: xx_atemp.0000000000.001.001.data
(PID.TID 0000.0001)  MDSREADFIELD: opening file: xx_atemp.0000000000.001.001.data
(PID.TID 0000.0001)  MDSREADFIELD: opening file: xx_aqh.0000000000.001.001.data
(PID.TID 0000.0001)  MDSREADFIELD: opening file: xx_aqh.0000000000.001.001.data
(PID.TID 0000.0001) 
(PID.TID 0000.0001)  exf_GetFFieldsRec: first, changed, fac:   F   F   0.49726776E+00
(PID.TID 0000.0001)  exf_GetFFieldsRec:      count0, count1:   1   2
(PID.TID 0000.0001) 
(PID.TID 0000.0001) 
(PID.TID 0000.0001)  exf_GetFFieldsRec: first, changed, fac:   F   F   0.49726776E+00
(PID.TID 0000.0001)  exf_GetFFieldsRec:      count0, count1:   1   2
(PID.TID 0000.0001) 
 cg2d: Sum(rhs),rhsMax =   6.20553955443803E-15  1.25438452343302E+00
(PID.TID 0000.0001)                    cg2d_init_res =    2.36078257971889E-01
(PID.TID 0000.0001)                       cg2d_iters =    45
(PID.TID 0000.0001)                         cg2d_res =    6.62546240702124E-14
(PID.TID 0000.0001) 
(PID.TID 0000.0001)  exf_GetFFieldsRec: first, changed, fac:   F   F   0.49590164E+00
(PID.TID 0000.0001)  exf_GetFFieldsRec:      count0, count1:   1   2
(PID.TID 0000.0001) 
(PID.TID 0000.0001) 
(PID.TID 0000.0001)  exf_GetFFieldsRec: first, changed, fac:   F   F   0.49590164E+00
(PID.TID 0000.0001)  exf_GetFFieldsRec:      count0, count1:   1   2
(PID.TID 0000.0001) 
(PID.TID 0000.0001)  MDSREADFIELD: opening file: xx_uwind.0000000000.001.001.data
(PID.TID 0000.0001)  MDSREADFIELD: opening file: xx_uwind.0000000000.001.001.data
(PID.TID 0000.0001)  MDSREADFIELD: opening file: xx_vwind.0000000000.001.001.data
(PID.TID 0000.0001)  MDSREADFIELD: opening file: xx_vwind.0000000000.001.001.data
(PID.TID 0000.0001) 
(PID.TID 0000.0001)  exf_GetFFieldsRec: first, changed, fac:   F   F   0.49590164E+00
(PID.TID 0000.0001)  exf_GetFFieldsRec:      count0, count1:   1   2
(PID.TID 0000.0001) 
(PID.TID 0000.0001) 
(PID.TID 0000.0001)  exf_GetFFieldsRec: first, changed, fac:   F   F   0.49590164E+00
(PID.TID 0000.0001)  exf_GetFFieldsRec:      count0, count1:   1   2
(PID.TID 0000.0001) 
(PID.TID 0000.0001) 
(PID.TID 0000.0001)  exf_GetFFieldsRec: first, changed, fac:   F   F   0.49590164E+00
(PID.TID 0000.0001)  exf_GetFFieldsRec:      count0, count1:   1   2
(PID.TID 0000.0001) 
(PID.TID 0000.0001)  MDSREADFIELD: opening file: xx_atemp.0000000000.001.001.data
(PID.TID 0000.0001)  MDSREADFIELD: opening file: xx_atemp.0000000000.001.001.data
(PID.TID 0000.0001)  MDSREADFIELD: opening file: xx_aqh.0000000000.001.001.data
(PID.TID 0000.0001)  MDSREADFIELD: opening file: xx_aqh.0000000000.001.001.data
(PID.TID 0000.0001) 
(PID.TID 0000.0001)  exf_GetFFieldsRec: first, changed, fac:   F   F   0.49590164E+00
(PID.TID 0000.0001)  exf_GetFFieldsRec:      count0, count1:   1   2
(PID.TID 0000.0001) 
(PID.TID 0000.0001) 
(PID.TID 0000.0001)  exf_GetFFieldsRec: first, changed, fac:   F   F   0.49590164E+00
(PID.TID 0000.0001)  exf_GetFFieldsRec:      count0, count1:   1   2
(PID.TID 0000.0001) 
 cg2d: Sum(rhs),rhsMax =   3.20620266447413E-15  1.25494322187447E+00
(PID.TID 0000.0001)                    cg2d_init_res =    1.82553144014713E-01
(PID.TID 0000.0001)                       cg2d_iters =    45
(PID.TID 0000.0001)                         cg2d_res =    5.12415163303431E-14
(PID.TID 0000.0001)  MDSREADVECTOR: opening file: tapelev2_1_the_main_loop_gsnm1.it0000.001.001.data
(PID.TID 0000.0001)  MDS_READ_RL_VEC: irec =  00000001   00015456
(PID.TID 0000.0001)  MDSREADVECTOR: opening file: tapelev2_2_the_main_loop_gtnm1.it0000.001.001.data
(PID.TID 0000.0001)  MDS_READ_RL_VEC: irec =  00000001   00015456
(PID.TID 0000.0001)  MDSREADVECTOR: opening file: tapelev2_3_the_main_loop_gunm1.it0000.001.001.data
(PID.TID 0000.0001)  MDS_READ_RL_VEC: irec =  00000001   00015456
(PID.TID 0000.0001)  MDSREADVECTOR: opening file: tapelev2_4_the_main_loop_gvnm1.it0000.001.001.data
(PID.TID 0000.0001)  MDS_READ_RL_VEC: irec =  00000001   00015456
(PID.TID 0000.0001)  MDSREADVECTOR: opening file: tapelev2_5_the_main_loop_theta.it0000.001.001.data
(PID.TID 0000.0001)  MDS_READ_RL_VEC: irec =  00000001   00015456
(PID.TID 0000.0001)  MDSREADVECTOR: opening file: tapelev2_6_the_main_loop_salt.it0000.001.001.data
(PID.TID 0000.0001)  MDS_READ_RL_VEC: irec =  00000001   00015456
(PID.TID 0000.0001)  MDSREADVECTOR: opening file: tapelev2_7_the_main_loop_uvel.it0000.001.001.data
(PID.TID 0000.0001)  MDS_READ_RL_VEC: irec =  00000001   00015456
(PID.TID 0000.0001)  MDSREADVECTOR: opening file: tapelev2_8_the_main_loop_vvel.it0000.001.001.data
(PID.TID 0000.0001)  MDS_READ_RL_VEC: irec =  00000001   00015456
(PID.TID 0000.0001)  MDSREADVECTOR: opening file: tapelev2_9_the_main_loop_wvel.it0000.001.001.data
(PID.TID 0000.0001)  MDS_READ_RL_VEC: irec =  00000001   00015456
(PID.TID 0000.0001)  MDSREADVECTOR: opening file: tapelev2_10_the_main_loop_etan.it0000.001.001.data
(PID.TID 0000.0001)  MDS_READ_RL_VEC: irec =  00000001   00000672
(PID.TID 0000.0001)  MDSREADVECTOR: opening file: tapelev2_11_the_main_loop_gu.it0000.001.001.data
(PID.TID 0000.0001)  MDS_READ_RL_VEC: irec =  00000001   00015456
(PID.TID 0000.0001)  MDSREADVECTOR: opening file: tapelev2_12_the_main_loop_gv.it0000.001.001.data
(PID.TID 0000.0001)  MDS_READ_RL_VEC: irec =  00000001   00015456
(PID.TID 0000.0001)  MDSREADVECTOR: opening file: tapelev2_13_the_main_loop_uveld.it0000.001.001.data
(PID.TID 0000.0001)  MDS_READ_RL_VEC: irec =  00000001   00015456
(PID.TID 0000.0001)  MDSREADVECTOR: opening file: tapelev2_14_the_main_loop_vveld.it0000.001.001.data
(PID.TID 0000.0001)  MDS_READ_RL_VEC: irec =  00000001   00015456
(PID.TID 0000.0001)  MDSREADVECTOR: opening file: tapelev2_15_the_main_loop_etanm1.it0000.001.001.data
(PID.TID 0000.0001)  MDS_READ_RL_VEC: irec =  00000001   00000672
(PID.TID 0000.0001)  MDSREADVECTOR: opening file: tapelev2_16_the_main_loop_unm1.it0000.001.001.data
(PID.TID 0000.0001)  MDS_READ_RL_VEC: irec =  00000001   00015456
(PID.TID 0000.0001)  MDSREADVECTOR: opening file: tapelev2_17_the_main_loop_vnm1.it0000.001.001.data
(PID.TID 0000.0001)  MDS_READ_RL_VEC: irec =  00000001   00015456
(PID.TID 0000.0001)  MDSREADVECTOR: opening file: tapelev2_18_the_main_loop_gucd.it0000.001.001.data
(PID.TID 0000.0001)  MDS_READ_RL_VEC: irec =  00000001   00015456
(PID.TID 0000.0001)  MDSREADVECTOR: opening file: tapelev2_19_the_main_loop_gvcd.it0000.001.001.data
(PID.TID 0000.0001)  MDS_READ_RL_VEC: irec =  00000001   00015456
(PID.TID 0000.0001)  MDSREADVECTOR: opening file: tapelev2_20_the_main_loop_etah.it0000.001.001.data
(PID.TID 0000.0001)  MDS_READ_RL_VEC: irec =  00000001   00000672
(PID.TID 0000.0001)  MDSREADVECTOR: opening file: tapelev2_21_the_main_loop_hdivflow.it0000.001.001.data
(PID.TID 0000.0001)  MDS_READ_RL_VEC: irec =  00000001   00000672
(PID.TID 0000.0001)  MDSREADVECTOR: opening file: tapelev2_22_the_main_loop_aqh0.it0000.001.001.data
(PID.TID 0000.0001)  MDS_READ_RL_VEC: irec =  00000001   00000672
(PID.TID 0000.0001)  MDSREADVECTOR: opening file: tapelev2_23_the_main_loop_aqh1.it0000.001.001.data
(PID.TID 0000.0001)  MDS_READ_RL_VEC: irec =  00000001   00000672
(PID.TID 0000.0001)  MDSREADVECTOR: opening file: tapelev2_24_the_main_loop_atemp0.it0000.001.001.data
(PID.TID 0000.0001)  MDS_READ_RL_VEC: irec =  00000001   00000672
(PID.TID 0000.0001)  MDSREADVECTOR: opening file: tapelev2_25_the_main_loop_atemp1.it0000.001.001.data
(PID.TID 0000.0001)  MDS_READ_RL_VEC: irec =  00000001   00000672
(PID.TID 0000.0001)  MDSREADVECTOR: opening file: tapelev2_26_the_main_loop_precip0.it0000.001.001.data
(PID.TID 0000.0001)  MDS_READ_RL_VEC: irec =  00000001   00000672
(PID.TID 0000.0001)  MDSREADVECTOR: opening file: tapelev2_27_the_main_loop_precip1.it0000.001.001.data
(PID.TID 0000.0001)  MDS_READ_RL_VEC: irec =  00000001   00000672
(PID.TID 0000.0001)  MDSREADVECTOR: opening file: tapelev2_28_the_main_loop_lwflux0.it0000.001.001.data
(PID.TID 0000.0001)  MDS_READ_RL_VEC: irec =  00000001   00000672
(PID.TID 0000.0001)  MDSREADVECTOR: opening file: tapelev2_29_the_main_loop_lwflux1.it0000.001.001.data
(PID.TID 0000.0001)  MDS_READ_RL_VEC: irec =  00000001   00000672
(PID.TID 0000.0001)  MDSREADVECTOR: opening file: tapelev2_30_the_main_loop_swflux0.it0000.001.001.data
(PID.TID 0000.0001)  MDS_READ_RL_VEC: irec =  00000001   00000672
(PID.TID 0000.0001)  MDSREADVECTOR: opening file: tapelev2_31_the_main_loop_swflux1.it0000.001.001.data
(PID.TID 0000.0001)  MDS_READ_RL_VEC: irec =  00000001   00000672
(PID.TID 0000.0001)  MDSREADVECTOR: opening file: tapelev2_32_the_main_loop_evap.it0000.001.001.data
(PID.TID 0000.0001)  MDS_READ_RL_VEC: irec =  00000001   00000672
(PID.TID 0000.0001)  MDSREADVECTOR: opening file: tapelev2_33_the_main_loop_uwind0.it0000.001.001.data
(PID.TID 0000.0001)  MDS_READ_RL_VEC: irec =  00000001   00000672
(PID.TID 0000.0001)  MDSREADVECTOR: opening file: tapelev2_34_the_main_loop_uwind1.it0000.001.001.data
(PID.TID 0000.0001)  MDS_READ_RL_VEC: irec =  00000001   00000672
(PID.TID 0000.0001)  MDSREADVECTOR: opening file: tapelev2_35_the_main_loop_vwind0.it0000.001.001.data
(PID.TID 0000.0001)  MDS_READ_RL_VEC: irec =  00000001   00000672
(PID.TID 0000.0001)  MDSREADVECTOR: opening file: tapelev2_36_the_main_loop_vwind1.it0000.001.001.data
(PID.TID 0000.0001)  MDS_READ_RL_VEC: irec =  00000001   00000672
(PID.TID 0000.0001) 
(PID.TID 0000.0001)  exf_GetFFieldsRec: first, changed, fac:   T   F   0.50000000E+00
(PID.TID 0000.0001)  exf_GetFFieldsRec:      count0, count1:   1   2
(PID.TID 0000.0001) 
(PID.TID 0000.0001)  MDSREADFIELD: opening global file: u10m.labsea79
(PID.TID 0000.0001)  MDSREADFIELD: opening global file: u10m.labsea79
(PID.TID 0000.0001) 
(PID.TID 0000.0001)  exf_GetFFieldsRec: first, changed, fac:   T   F   0.50000000E+00
(PID.TID 0000.0001)  exf_GetFFieldsRec:      count0, count1:   1   2
(PID.TID 0000.0001) 
(PID.TID 0000.0001)  MDSREADFIELD: opening global file: v10m.labsea79
(PID.TID 0000.0001)  MDSREADFIELD: opening global file: v10m.labsea79
(PID.TID 0000.0001)  MDSREADFIELD: opening file: xx_uwind.0000000000.001.001.data
(PID.TID 0000.0001)  MDSREADFIELD: opening file: xx_uwind.0000000000.001.001.data
(PID.TID 0000.0001)  MDSREADFIELD: opening file: xx_vwind.0000000000.001.001.data
(PID.TID 0000.0001)  MDSREADFIELD: opening file: xx_vwind.0000000000.001.001.data
(PID.TID 0000.0001) 
(PID.TID 0000.0001)  exf_GetFFieldsRec: first, changed, fac:   T   F   0.50000000E+00
(PID.TID 0000.0001)  exf_GetFFieldsRec:      count0, count1:   1   2
(PID.TID 0000.0001) 
(PID.TID 0000.0001)  MDSREADFIELD: opening global file: tair.labsea1979
(PID.TID 0000.0001)  MDSREADFIELD: opening global file: tair.labsea1979
(PID.TID 0000.0001) 
(PID.TID 0000.0001)  exf_GetFFieldsRec: first, changed, fac:   T   F   0.50000000E+00
(PID.TID 0000.0001)  exf_GetFFieldsRec:      count0, count1:   1   2
(PID.TID 0000.0001) 
(PID.TID 0000.0001)  MDSREADFIELD: opening global file: qa.labsea1979
(PID.TID 0000.0001)  MDSREADFIELD: opening global file: qa.labsea1979
(PID.TID 0000.0001) 
(PID.TID 0000.0001)  exf_GetFFieldsRec: first, changed, fac:   T   F   0.50000000E+00
(PID.TID 0000.0001)  exf_GetFFieldsRec:      count0, count1:   1   2
(PID.TID 0000.0001) 
(PID.TID 0000.0001)  MDSREADFIELD: opening global file: prate.labsea1979
(PID.TID 0000.0001)  MDSREADFIELD: opening global file: prate.labsea1979
(PID.TID 0000.0001)  MDSREADFIELD: opening file: xx_atemp.0000000000.001.001.data
(PID.TID 0000.0001)  MDSREADFIELD: opening file: xx_atemp.0000000000.001.001.data
(PID.TID 0000.0001)  MDSREADFIELD: opening file: xx_aqh.0000000000.001.001.data
(PID.TID 0000.0001)  MDSREADFIELD: opening file: xx_aqh.0000000000.001.001.data
(PID.TID 0000.0001) 
(PID.TID 0000.0001)  exf_GetFFieldsRec: first, changed, fac:   T   F   0.50000000E+00
(PID.TID 0000.0001)  exf_GetFFieldsRec:      count0, count1:   1   2
(PID.TID 0000.0001) 
(PID.TID 0000.0001)  MDSREADFIELD: opening global file: fsh.labsea1979
(PID.TID 0000.0001)  MDSREADFIELD: opening global file: fsh.labsea1979
(PID.TID 0000.0001) 
(PID.TID 0000.0001)  exf_GetFFieldsRec: first, changed, fac:   T   F   0.50000000E+00
(PID.TID 0000.0001)  exf_GetFFieldsRec:      count0, count1:   1   2
(PID.TID 0000.0001) 
(PID.TID 0000.0001)  MDSREADFIELD: opening global file: flo.labsea1979
(PID.TID 0000.0001)  MDSREADFIELD: opening global file: flo.labsea1979
 cg2d: Sum(rhs),rhsMax =   1.95590071916385E-16  1.00807802167630E+00
(PID.TID 0000.0001)                    cg2d_init_res =    1.61521300655486E+00
(PID.TID 0000.0001)                       cg2d_iters =    47
(PID.TID 0000.0001)                         cg2d_res =    5.70138941994743E-14
(PID.TID 0000.0001) 
(PID.TID 0000.0001)  exf_GetFFieldsRec: first, changed, fac:   F   F   0.49863388E+00
(PID.TID 0000.0001)  exf_GetFFieldsRec:      count0, count1:   1   2
(PID.TID 0000.0001) 
(PID.TID 0000.0001) 
(PID.TID 0000.0001)  exf_GetFFieldsRec: first, changed, fac:   F   F   0.49863388E+00
(PID.TID 0000.0001)  exf_GetFFieldsRec:      count0, count1:   1   2
(PID.TID 0000.0001) 
(PID.TID 0000.0001)  MDSREADFIELD: opening file: xx_uwind.0000000000.001.001.data
(PID.TID 0000.0001)  MDSREADFIELD: opening file: xx_uwind.0000000000.001.001.data
(PID.TID 0000.0001)  MDSREADFIELD: opening file: xx_vwind.0000000000.001.001.data
(PID.TID 0000.0001)  MDSREADFIELD: opening file: xx_vwind.0000000000.001.001.data
(PID.TID 0000.0001) 
(PID.TID 0000.0001)  exf_GetFFieldsRec: first, changed, fac:   F   F   0.49863388E+00
(PID.TID 0000.0001)  exf_GetFFieldsRec:      count0, count1:   1   2
(PID.TID 0000.0001) 
(PID.TID 0000.0001) 
(PID.TID 0000.0001)  exf_GetFFieldsRec: first, changed, fac:   F   F   0.49863388E+00
(PID.TID 0000.0001)  exf_GetFFieldsRec:      count0, count1:   1   2
(PID.TID 0000.0001) 
(PID.TID 0000.0001) 
(PID.TID 0000.0001)  exf_GetFFieldsRec: first, changed, fac:   F   F   0.49863388E+00
(PID.TID 0000.0001)  exf_GetFFieldsRec:      count0, count1:   1   2
(PID.TID 0000.0001) 
(PID.TID 0000.0001)  MDSREADFIELD: opening file: xx_atemp.0000000000.001.001.data
(PID.TID 0000.0001)  MDSREADFIELD: opening file: xx_atemp.0000000000.001.001.data
(PID.TID 0000.0001)  MDSREADFIELD: opening file: xx_aqh.0000000000.001.001.data
(PID.TID 0000.0001)  MDSREADFIELD: opening file: xx_aqh.0000000000.001.001.data
(PID.TID 0000.0001) 
(PID.TID 0000.0001)  exf_GetFFieldsRec: first, changed, fac:   F   F   0.49863388E+00
(PID.TID 0000.0001)  exf_GetFFieldsRec:      count0, count1:   1   2
(PID.TID 0000.0001) 
(PID.TID 0000.0001) 
(PID.TID 0000.0001)  exf_GetFFieldsRec: first, changed, fac:   F   F   0.49863388E+00
(PID.TID 0000.0001)  exf_GetFFieldsRec:      count0, count1:   1   2
(PID.TID 0000.0001) 
 cg2d: Sum(rhs),rhsMax =   7.37474317724640E-16  1.23585471329616E+00
(PID.TID 0000.0001)                    cg2d_init_res =    3.48544561450945E-01
(PID.TID 0000.0001)                       cg2d_iters =    45
(PID.TID 0000.0001)                         cg2d_res =    6.49477568692734E-14
(PID.TID 0000.0001) 
(PID.TID 0000.0001)  exf_GetFFieldsRec: first, changed, fac:   F   F   0.49726776E+00
(PID.TID 0000.0001)  exf_GetFFieldsRec:      count0, count1:   1   2
(PID.TID 0000.0001) 
(PID.TID 0000.0001) 
(PID.TID 0000.0001)  exf_GetFFieldsRec: first, changed, fac:   F   F   0.49726776E+00
(PID.TID 0000.0001)  exf_GetFFieldsRec:      count0, count1:   1   2
(PID.TID 0000.0001) 
(PID.TID 0000.0001)  MDSREADFIELD: opening file: xx_uwind.0000000000.001.001.data
(PID.TID 0000.0001)  MDSREADFIELD: opening file: xx_uwind.0000000000.001.001.data
(PID.TID 0000.0001)  MDSREADFIELD: opening file: xx_vwind.0000000000.001.001.data
(PID.TID 0000.0001)  MDSREADFIELD: opening file: xx_vwind.0000000000.001.001.data
(PID.TID 0000.0001) 
(PID.TID 0000.0001)  exf_GetFFieldsRec: first, changed, fac:   F   F   0.49726776E+00
(PID.TID 0000.0001)  exf_GetFFieldsRec:      count0, count1:   1   2
(PID.TID 0000.0001) 
(PID.TID 0000.0001) 
(PID.TID 0000.0001)  exf_GetFFieldsRec: first, changed, fac:   F   F   0.49726776E+00
(PID.TID 0000.0001)  exf_GetFFieldsRec:      count0, count1:   1   2
(PID.TID 0000.0001) 
(PID.TID 0000.0001) 
(PID.TID 0000.0001)  exf_GetFFieldsRec: first, changed, fac:   F   F   0.49726776E+00
(PID.TID 0000.0001)  exf_GetFFieldsRec:      count0, count1:   1   2
(PID.TID 0000.0001) 
(PID.TID 0000.0001)  MDSREADFIELD: opening file: xx_atemp.0000000000.001.001.data
(PID.TID 0000.0001)  MDSREADFIELD: opening file: xx_atemp.0000000000.001.001.data
(PID.TID 0000.0001)  MDSREADFIELD: opening file: xx_aqh.0000000000.001.001.data
(PID.TID 0000.0001)  MDSREADFIELD: opening file: xx_aqh.0000000000.001.001.data
(PID.TID 0000.0001) 
(PID.TID 0000.0001)  exf_GetFFieldsRec: first, changed, fac:   F   F   0.49726776E+00
(PID.TID 0000.0001)  exf_GetFFieldsRec:      count0, count1:   1   2
(PID.TID 0000.0001) 
(PID.TID 0000.0001) 
(PID.TID 0000.0001)  exf_GetFFieldsRec: first, changed, fac:   F   F   0.49726776E+00
(PID.TID 0000.0001)  exf_GetFFieldsRec:      count0, count1:   1   2
(PID.TID 0000.0001) 
 cg2d: Sum(rhs),rhsMax =   6.20553955443803E-15  1.25438452343302E+00
(PID.TID 0000.0001)                    cg2d_init_res =    2.36078257971889E-01
(PID.TID 0000.0001)                       cg2d_iters =    45
(PID.TID 0000.0001)                         cg2d_res =    6.62546240702124E-14
(PID.TID 0000.0001) 
(PID.TID 0000.0001)  exf_GetFFieldsRec: first, changed, fac:   F   F   0.49590164E+00
(PID.TID 0000.0001)  exf_GetFFieldsRec:      count0, count1:   1   2
(PID.TID 0000.0001) 
(PID.TID 0000.0001) 
(PID.TID 0000.0001)  exf_GetFFieldsRec: first, changed, fac:   F   F   0.49590164E+00
(PID.TID 0000.0001)  exf_GetFFieldsRec:      count0, count1:   1   2
(PID.TID 0000.0001) 
(PID.TID 0000.0001)  MDSREADFIELD: opening file: xx_uwind.0000000000.001.001.data
(PID.TID 0000.0001)  MDSREADFIELD: opening file: xx_uwind.0000000000.001.001.data
(PID.TID 0000.0001)  MDSREADFIELD: opening file: xx_vwind.0000000000.001.001.data
(PID.TID 0000.0001)  MDSREADFIELD: opening file: xx_vwind.0000000000.001.001.data
(PID.TID 0000.0001) 
(PID.TID 0000.0001)  exf_GetFFieldsRec: first, changed, fac:   F   F   0.49590164E+00
(PID.TID 0000.0001)  exf_GetFFieldsRec:      count0, count1:   1   2
(PID.TID 0000.0001) 
(PID.TID 0000.0001) 
(PID.TID 0000.0001)  exf_GetFFieldsRec: first, changed, fac:   F   F   0.49590164E+00
(PID.TID 0000.0001)  exf_GetFFieldsRec:      count0, count1:   1   2
(PID.TID 0000.0001) 
(PID.TID 0000.0001) 
(PID.TID 0000.0001)  exf_GetFFieldsRec: first, changed, fac:   F   F   0.49590164E+00
(PID.TID 0000.0001)  exf_GetFFieldsRec:      count0, count1:   1   2
(PID.TID 0000.0001) 
(PID.TID 0000.0001)  MDSREADFIELD: opening file: xx_atemp.0000000000.001.001.data
(PID.TID 0000.0001)  MDSREADFIELD: opening file: xx_atemp.0000000000.001.001.data
(PID.TID 0000.0001)  MDSREADFIELD: opening file: xx_aqh.0000000000.001.001.data
(PID.TID 0000.0001)  MDSREADFIELD: opening file: xx_aqh.0000000000.001.001.data
(PID.TID 0000.0001) 
(PID.TID 0000.0001)  exf_GetFFieldsRec: first, changed, fac:   F   F   0.49590164E+00
(PID.TID 0000.0001)  exf_GetFFieldsRec:      count0, count1:   1   2
(PID.TID 0000.0001) 
(PID.TID 0000.0001) 
(PID.TID 0000.0001)  exf_GetFFieldsRec: first, changed, fac:   F   F   0.49590164E+00
(PID.TID 0000.0001)  exf_GetFFieldsRec:      count0, count1:   1   2
(PID.TID 0000.0001) 
 cg2d: Sum(rhs),rhsMax =   3.20620266447413E-15  1.25494322187447E+00
(PID.TID 0000.0001)                    cg2d_init_res =    1.82553144014713E-01
(PID.TID 0000.0001)                       cg2d_iters =    45
(PID.TID 0000.0001)                         cg2d_res =    5.12415163303431E-14
(PID.TID 0000.0001)  MDSREADVECTOR: opening file: tapelev2_1_the_main_loop_gsnm1.it0000.001.001.data
(PID.TID 0000.0001)  MDS_READ_RL_VEC: irec =  00000001   00015456
(PID.TID 0000.0001)  MDSREADVECTOR: opening file: tapelev2_2_the_main_loop_gtnm1.it0000.001.001.data
(PID.TID 0000.0001)  MDS_READ_RL_VEC: irec =  00000001   00015456
(PID.TID 0000.0001)  MDSREADVECTOR: opening file: tapelev2_3_the_main_loop_gunm1.it0000.001.001.data
(PID.TID 0000.0001)  MDS_READ_RL_VEC: irec =  00000001   00015456
(PID.TID 0000.0001)  MDSREADVECTOR: opening file: tapelev2_4_the_main_loop_gvnm1.it0000.001.001.data
(PID.TID 0000.0001)  MDS_READ_RL_VEC: irec =  00000001   00015456
(PID.TID 0000.0001)  MDSREADVECTOR: opening file: tapelev2_5_the_main_loop_theta.it0000.001.001.data
(PID.TID 0000.0001)  MDS_READ_RL_VEC: irec =  00000001   00015456
(PID.TID 0000.0001)  MDSREADVECTOR: opening file: tapelev2_6_the_main_loop_salt.it0000.001.001.data
(PID.TID 0000.0001)  MDS_READ_RL_VEC: irec =  00000001   00015456
(PID.TID 0000.0001)  MDSREADVECTOR: opening file: tapelev2_7_the_main_loop_uvel.it0000.001.001.data
(PID.TID 0000.0001)  MDS_READ_RL_VEC: irec =  00000001   00015456
(PID.TID 0000.0001)  MDSREADVECTOR: opening file: tapelev2_8_the_main_loop_vvel.it0000.001.001.data
(PID.TID 0000.0001)  MDS_READ_RL_VEC: irec =  00000001   00015456
(PID.TID 0000.0001)  MDSREADVECTOR: opening file: tapelev2_9_the_main_loop_wvel.it0000.001.001.data
(PID.TID 0000.0001)  MDS_READ_RL_VEC: irec =  00000001   00015456
(PID.TID 0000.0001)  MDSREADVECTOR: opening file: tapelev2_10_the_main_loop_etan.it0000.001.001.data
(PID.TID 0000.0001)  MDS_READ_RL_VEC: irec =  00000001   00000672
(PID.TID 0000.0001)  MDSREADVECTOR: opening file: tapelev2_11_the_main_loop_gu.it0000.001.001.data
(PID.TID 0000.0001)  MDS_READ_RL_VEC: irec =  00000001   00015456
(PID.TID 0000.0001)  MDSREADVECTOR: opening file: tapelev2_12_the_main_loop_gv.it0000.001.001.data
(PID.TID 0000.0001)  MDS_READ_RL_VEC: irec =  00000001   00015456
(PID.TID 0000.0001)  MDSREADVECTOR: opening file: tapelev2_13_the_main_loop_uveld.it0000.001.001.data
(PID.TID 0000.0001)  MDS_READ_RL_VEC: irec =  00000001   00015456
(PID.TID 0000.0001)  MDSREADVECTOR: opening file: tapelev2_14_the_main_loop_vveld.it0000.001.001.data
(PID.TID 0000.0001)  MDS_READ_RL_VEC: irec =  00000001   00015456
(PID.TID 0000.0001)  MDSREADVECTOR: opening file: tapelev2_15_the_main_loop_etanm1.it0000.001.001.data
(PID.TID 0000.0001)  MDS_READ_RL_VEC: irec =  00000001   00000672
(PID.TID 0000.0001)  MDSREADVECTOR: opening file: tapelev2_16_the_main_loop_unm1.it0000.001.001.data
(PID.TID 0000.0001)  MDS_READ_RL_VEC: irec =  00000001   00015456
(PID.TID 0000.0001)  MDSREADVECTOR: opening file: tapelev2_17_the_main_loop_vnm1.it0000.001.001.data
(PID.TID 0000.0001)  MDS_READ_RL_VEC: irec =  00000001   00015456
(PID.TID 0000.0001)  MDSREADVECTOR: opening file: tapelev2_18_the_main_loop_gucd.it0000.001.001.data
(PID.TID 0000.0001)  MDS_READ_RL_VEC: irec =  00000001   00015456
(PID.TID 0000.0001)  MDSREADVECTOR: opening file: tapelev2_19_the_main_loop_gvcd.it0000.001.001.data
(PID.TID 0000.0001)  MDS_READ_RL_VEC: irec =  00000001   00015456
(PID.TID 0000.0001)  MDSREADVECTOR: opening file: tapelev2_20_the_main_loop_etah.it0000.001.001.data
(PID.TID 0000.0001)  MDS_READ_RL_VEC: irec =  00000001   00000672
(PID.TID 0000.0001)  MDSREADVECTOR: opening file: tapelev2_21_the_main_loop_hdivflow.it0000.001.001.data
(PID.TID 0000.0001)  MDS_READ_RL_VEC: irec =  00000001   00000672
(PID.TID 0000.0001)  MDSREADVECTOR: opening file: tapelev2_22_the_main_loop_aqh0.it0000.001.001.data
(PID.TID 0000.0001)  MDS_READ_RL_VEC: irec =  00000001   00000672
(PID.TID 0000.0001)  MDSREADVECTOR: opening file: tapelev2_23_the_main_loop_aqh1.it0000.001.001.data
(PID.TID 0000.0001)  MDS_READ_RL_VEC: irec =  00000001   00000672
(PID.TID 0000.0001)  MDSREADVECTOR: opening file: tapelev2_24_the_main_loop_atemp0.it0000.001.001.data
(PID.TID 0000.0001)  MDS_READ_RL_VEC: irec =  00000001   00000672
(PID.TID 0000.0001)  MDSREADVECTOR: opening file: tapelev2_25_the_main_loop_atemp1.it0000.001.001.data
(PID.TID 0000.0001)  MDS_READ_RL_VEC: irec =  00000001   00000672
(PID.TID 0000.0001)  MDSREADVECTOR: opening file: tapelev2_26_the_main_loop_precip0.it0000.001.001.data
(PID.TID 0000.0001)  MDS_READ_RL_VEC: irec =  00000001   00000672
(PID.TID 0000.0001)  MDSREADVECTOR: opening file: tapelev2_27_the_main_loop_precip1.it0000.001.001.data
(PID.TID 0000.0001)  MDS_READ_RL_VEC: irec =  00000001   00000672
(PID.TID 0000.0001)  MDSREADVECTOR: opening file: tapelev2_28_the_main_loop_lwflux0.it0000.001.001.data
(PID.TID 0000.0001)  MDS_READ_RL_VEC: irec =  00000001   00000672
(PID.TID 0000.0001)  MDSREADVECTOR: opening file: tapelev2_29_the_main_loop_lwflux1.it0000.001.001.data
(PID.TID 0000.0001)  MDS_READ_RL_VEC: irec =  00000001   00000672
(PID.TID 0000.0001)  MDSREADVECTOR: opening file: tapelev2_30_the_main_loop_swflux0.it0000.001.001.data
(PID.TID 0000.0001)  MDS_READ_RL_VEC: irec =  00000001   00000672
(PID.TID 0000.0001)  MDSREADVECTOR: opening file: tapelev2_31_the_main_loop_swflux1.it0000.001.001.data
(PID.TID 0000.0001)  MDS_READ_RL_VEC: irec =  00000001   00000672
(PID.TID 0000.0001)  MDSREADVECTOR: opening file: tapelev2_32_the_main_loop_evap.it0000.001.001.data
(PID.TID 0000.0001)  MDS_READ_RL_VEC: irec =  00000001   00000672
(PID.TID 0000.0001)  MDSREADVECTOR: opening file: tapelev2_33_the_main_loop_uwind0.it0000.001.001.data
(PID.TID 0000.0001)  MDS_READ_RL_VEC: irec =  00000001   00000672
(PID.TID 0000.0001)  MDSREADVECTOR: opening file: tapelev2_34_the_main_loop_uwind1.it0000.001.001.data
(PID.TID 0000.0001)  MDS_READ_RL_VEC: irec =  00000001   00000672
(PID.TID 0000.0001)  MDSREADVECTOR: opening file: tapelev2_35_the_main_loop_vwind0.it0000.001.001.data
(PID.TID 0000.0001)  MDS_READ_RL_VEC: irec =  00000001   00000672
(PID.TID 0000.0001)  MDSREADVECTOR: opening file: tapelev2_36_the_main_loop_vwind1.it0000.001.001.data
(PID.TID 0000.0001)  MDS_READ_RL_VEC: irec =  00000001   00000672
(PID.TID 0000.0001) 
(PID.TID 0000.0001)  exf_GetFFieldsRec: first, changed, fac:   T   F   0.50000000E+00
(PID.TID 0000.0001)  exf_GetFFieldsRec:      count0, count1:   1   2
(PID.TID 0000.0001) 
(PID.TID 0000.0001)  MDSREADFIELD: opening global file: u10m.labsea79
(PID.TID 0000.0001)  MDSREADFIELD: opening global file: u10m.labsea79
(PID.TID 0000.0001) 
(PID.TID 0000.0001)  exf_GetFFieldsRec: first, changed, fac:   T   F   0.50000000E+00
(PID.TID 0000.0001)  exf_GetFFieldsRec:      count0, count1:   1   2
(PID.TID 0000.0001) 
(PID.TID 0000.0001)  MDSREADFIELD: opening global file: v10m.labsea79
(PID.TID 0000.0001)  MDSREADFIELD: opening global file: v10m.labsea79
(PID.TID 0000.0001)  MDSREADFIELD: opening file: xx_uwind.0000000000.001.001.data
(PID.TID 0000.0001)  MDSREADFIELD: opening file: xx_uwind.0000000000.001.001.data
(PID.TID 0000.0001)  MDSREADFIELD: opening file: xx_vwind.0000000000.001.001.data
(PID.TID 0000.0001)  MDSREADFIELD: opening file: xx_vwind.0000000000.001.001.data
(PID.TID 0000.0001) 
(PID.TID 0000.0001)  exf_GetFFieldsRec: first, changed, fac:   T   F   0.50000000E+00
(PID.TID 0000.0001)  exf_GetFFieldsRec:      count0, count1:   1   2
(PID.TID 0000.0001) 
(PID.TID 0000.0001)  MDSREADFIELD: opening global file: tair.labsea1979
(PID.TID 0000.0001)  MDSREADFIELD: opening global file: tair.labsea1979
(PID.TID 0000.0001) 
(PID.TID 0000.0001)  exf_GetFFieldsRec: first, changed, fac:   T   F   0.50000000E+00
(PID.TID 0000.0001)  exf_GetFFieldsRec:      count0, count1:   1   2
(PID.TID 0000.0001) 
(PID.TID 0000.0001)  MDSREADFIELD: opening global file: qa.labsea1979
(PID.TID 0000.0001)  MDSREADFIELD: opening global file: qa.labsea1979
(PID.TID 0000.0001) 
(PID.TID 0000.0001)  exf_GetFFieldsRec: first, changed, fac:   T   F   0.50000000E+00
(PID.TID 0000.0001)  exf_GetFFieldsRec:      count0, count1:   1   2
(PID.TID 0000.0001) 
(PID.TID 0000.0001)  MDSREADFIELD: opening global file: prate.labsea1979
(PID.TID 0000.0001)  MDSREADFIELD: opening global file: prate.labsea1979
(PID.TID 0000.0001)  MDSREADFIELD: opening file: xx_atemp.0000000000.001.001.data
(PID.TID 0000.0001)  MDSREADFIELD: opening file: xx_atemp.0000000000.001.001.data
(PID.TID 0000.0001)  MDSREADFIELD: opening file: xx_aqh.0000000000.001.001.data
(PID.TID 0000.0001)  MDSREADFIELD: opening file: xx_aqh.0000000000.001.001.data
(PID.TID 0000.0001) 
(PID.TID 0000.0001)  exf_GetFFieldsRec: first, changed, fac:   T   F   0.50000000E+00
(PID.TID 0000.0001)  exf_GetFFieldsRec:      count0, count1:   1   2
(PID.TID 0000.0001) 
(PID.TID 0000.0001)  MDSREADFIELD: opening global file: fsh.labsea1979
(PID.TID 0000.0001)  MDSREADFIELD: opening global file: fsh.labsea1979
(PID.TID 0000.0001) 
(PID.TID 0000.0001)  exf_GetFFieldsRec: first, changed, fac:   T   F   0.50000000E+00
(PID.TID 0000.0001)  exf_GetFFieldsRec:      count0, count1:   1   2
(PID.TID 0000.0001) 
(PID.TID 0000.0001)  MDSREADFIELD: opening global file: flo.labsea1979
(PID.TID 0000.0001)  MDSREADFIELD: opening global file: flo.labsea1979
 cg2d: Sum(rhs),rhsMax =   1.95590071916385E-16  1.00807802167630E+00
(PID.TID 0000.0001)                    cg2d_init_res =    1.61521300655486E+00
(PID.TID 0000.0001)                       cg2d_iters =    47
(PID.TID 0000.0001)                         cg2d_res =    5.70138941994743E-14
(PID.TID 0000.0001) 
(PID.TID 0000.0001)  exf_GetFFieldsRec: first, changed, fac:   F   F   0.49863388E+00
(PID.TID 0000.0001)  exf_GetFFieldsRec:      count0, count1:   1   2
(PID.TID 0000.0001) 
(PID.TID 0000.0001) 
(PID.TID 0000.0001)  exf_GetFFieldsRec: first, changed, fac:   F   F   0.49863388E+00
(PID.TID 0000.0001)  exf_GetFFieldsRec:      count0, count1:   1   2
(PID.TID 0000.0001) 
(PID.TID 0000.0001)  MDSREADFIELD: opening file: xx_uwind.0000000000.001.001.data
(PID.TID 0000.0001)  MDSREADFIELD: opening file: xx_uwind.0000000000.001.001.data
(PID.TID 0000.0001)  MDSREADFIELD: opening file: xx_vwind.0000000000.001.001.data
(PID.TID 0000.0001)  MDSREADFIELD: opening file: xx_vwind.0000000000.001.001.data
(PID.TID 0000.0001) 
(PID.TID 0000.0001)  exf_GetFFieldsRec: first, changed, fac:   F   F   0.49863388E+00
(PID.TID 0000.0001)  exf_GetFFieldsRec:      count0, count1:   1   2
(PID.TID 0000.0001) 
(PID.TID 0000.0001) 
(PID.TID 0000.0001)  exf_GetFFieldsRec: first, changed, fac:   F   F   0.49863388E+00
(PID.TID 0000.0001)  exf_GetFFieldsRec:      count0, count1:   1   2
(PID.TID 0000.0001) 
(PID.TID 0000.0001) 
(PID.TID 0000.0001)  exf_GetFFieldsRec: first, changed, fac:   F   F   0.49863388E+00
(PID.TID 0000.0001)  exf_GetFFieldsRec:      count0, count1:   1   2
(PID.TID 0000.0001) 
(PID.TID 0000.0001)  MDSREADFIELD: opening file: xx_atemp.0000000000.001.001.data
(PID.TID 0000.0001)  MDSREADFIELD: opening file: xx_atemp.0000000000.001.001.data
(PID.TID 0000.0001)  MDSREADFIELD: opening file: xx_aqh.0000000000.001.001.data
(PID.TID 0000.0001)  MDSREADFIELD: opening file: xx_aqh.0000000000.001.001.data
(PID.TID 0000.0001) 
(PID.TID 0000.0001)  exf_GetFFieldsRec: first, changed, fac:   F   F   0.49863388E+00
(PID.TID 0000.0001)  exf_GetFFieldsRec:      count0, count1:   1   2
(PID.TID 0000.0001) 
(PID.TID 0000.0001) 
(PID.TID 0000.0001)  exf_GetFFieldsRec: first, changed, fac:   F   F   0.49863388E+00
(PID.TID 0000.0001)  exf_GetFFieldsRec:      count0, count1:   1   2
(PID.TID 0000.0001) 
 cg2d: Sum(rhs),rhsMax =   7.37474317724640E-16  1.23585471329616E+00
(PID.TID 0000.0001)                    cg2d_init_res =    3.48544561450945E-01
(PID.TID 0000.0001)                       cg2d_iters =    45
(PID.TID 0000.0001)                         cg2d_res =    6.49477568692734E-14
(PID.TID 0000.0001) 
(PID.TID 0000.0001)  exf_GetFFieldsRec: first, changed, fac:   F   F   0.49726776E+00
(PID.TID 0000.0001)  exf_GetFFieldsRec:      count0, count1:   1   2
(PID.TID 0000.0001) 
(PID.TID 0000.0001) 
(PID.TID 0000.0001)  exf_GetFFieldsRec: first, changed, fac:   F   F   0.49726776E+00
(PID.TID 0000.0001)  exf_GetFFieldsRec:      count0, count1:   1   2
(PID.TID 0000.0001) 
(PID.TID 0000.0001)  MDSREADFIELD: opening file: xx_uwind.0000000000.001.001.data
(PID.TID 0000.0001)  MDSREADFIELD: opening file: xx_uwind.0000000000.001.001.data
(PID.TID 0000.0001)  MDSREADFIELD: opening file: xx_vwind.0000000000.001.001.data
(PID.TID 0000.0001)  MDSREADFIELD: opening file: xx_vwind.0000000000.001.001.data
(PID.TID 0000.0001) 
(PID.TID 0000.0001)  exf_GetFFieldsRec: first, changed, fac:   F   F   0.49726776E+00
(PID.TID 0000.0001)  exf_GetFFieldsRec:      count0, count1:   1   2
(PID.TID 0000.0001) 
(PID.TID 0000.0001) 
(PID.TID 0000.0001)  exf_GetFFieldsRec: first, changed, fac:   F   F   0.49726776E+00
(PID.TID 0000.0001)  exf_GetFFieldsRec:      count0, count1:   1   2
(PID.TID 0000.0001) 
(PID.TID 0000.0001) 
(PID.TID 0000.0001)  exf_GetFFieldsRec: first, changed, fac:   F   F   0.49726776E+00
(PID.TID 0000.0001)  exf_GetFFieldsRec:      count0, count1:   1   2
(PID.TID 0000.0001) 
(PID.TID 0000.0001)  MDSREADFIELD: opening file: xx_atemp.0000000000.001.001.data
(PID.TID 0000.0001)  MDSREADFIELD: opening file: xx_atemp.0000000000.001.001.data
(PID.TID 0000.0001)  MDSREADFIELD: opening file: xx_aqh.0000000000.001.001.data
(PID.TID 0000.0001)  MDSREADFIELD: opening file: xx_aqh.0000000000.001.001.data
(PID.TID 0000.0001) 
(PID.TID 0000.0001)  exf_GetFFieldsRec: first, changed, fac:   F   F   0.49726776E+00
(PID.TID 0000.0001)  exf_GetFFieldsRec:      count0, count1:   1   2
(PID.TID 0000.0001) 
(PID.TID 0000.0001) 
(PID.TID 0000.0001)  exf_GetFFieldsRec: first, changed, fac:   F   F   0.49726776E+00
(PID.TID 0000.0001)  exf_GetFFieldsRec:      count0, count1:   1   2
(PID.TID 0000.0001) 
 cg2d: Sum(rhs),rhsMax =   6.20553955443803E-15  1.25438452343302E+00
(PID.TID 0000.0001)                    cg2d_init_res =    2.36078257971889E-01
(PID.TID 0000.0001)                       cg2d_iters =    45
(PID.TID 0000.0001)                         cg2d_res =    6.62546240702124E-14
(PID.TID 0000.0001) 
(PID.TID 0000.0001)  exf_GetFFieldsRec: first, changed, fac:   F   F   0.49590164E+00
(PID.TID 0000.0001)  exf_GetFFieldsRec:      count0, count1:   1   2
(PID.TID 0000.0001) 
(PID.TID 0000.0001) 
(PID.TID 0000.0001)  exf_GetFFieldsRec: first, changed, fac:   F   F   0.49590164E+00
(PID.TID 0000.0001)  exf_GetFFieldsRec:      count0, count1:   1   2
(PID.TID 0000.0001) 
(PID.TID 0000.0001)  MDSREADFIELD: opening file: xx_uwind.0000000000.001.001.data
(PID.TID 0000.0001)  MDSREADFIELD: opening file: xx_uwind.0000000000.001.001.data
(PID.TID 0000.0001)  MDSREADFIELD: opening file: xx_vwind.0000000000.001.001.data
(PID.TID 0000.0001)  MDSREADFIELD: opening file: xx_vwind.0000000000.001.001.data
(PID.TID 0000.0001) 
(PID.TID 0000.0001)  exf_GetFFieldsRec: first, changed, fac:   F   F   0.49590164E+00
(PID.TID 0000.0001)  exf_GetFFieldsRec:      count0, count1:   1   2
(PID.TID 0000.0001) 
(PID.TID 0000.0001) 
(PID.TID 0000.0001)  exf_GetFFieldsRec: first, changed, fac:   F   F   0.49590164E+00
(PID.TID 0000.0001)  exf_GetFFieldsRec:      count0, count1:   1   2
(PID.TID 0000.0001) 
(PID.TID 0000.0001) 
(PID.TID 0000.0001)  exf_GetFFieldsRec: first, changed, fac:   F   F   0.49590164E+00
(PID.TID 0000.0001)  exf_GetFFieldsRec:      count0, count1:   1   2
(PID.TID 0000.0001) 
(PID.TID 0000.0001)  MDSREADFIELD: opening file: xx_atemp.0000000000.001.001.data
(PID.TID 0000.0001)  MDSREADFIELD: opening file: xx_atemp.0000000000.001.001.data
(PID.TID 0000.0001)  MDSREADFIELD: opening file: xx_aqh.0000000000.001.001.data
(PID.TID 0000.0001)  MDSREADFIELD: opening file: xx_aqh.0000000000.001.001.data
(PID.TID 0000.0001) 
(PID.TID 0000.0001)  exf_GetFFieldsRec: first, changed, fac:   F   F   0.49590164E+00
(PID.TID 0000.0001)  exf_GetFFieldsRec:      count0, count1:   1   2
(PID.TID 0000.0001) 
(PID.TID 0000.0001) 
(PID.TID 0000.0001)  exf_GetFFieldsRec: first, changed, fac:   F   F   0.49590164E+00
(PID.TID 0000.0001)  exf_GetFFieldsRec:      count0, count1:   1   2
(PID.TID 0000.0001) 
 cg2d: Sum(rhs),rhsMax =   3.20620266447413E-15  1.25494322187447E+00
(PID.TID 0000.0001)                    cg2d_init_res =    1.82553144014713E-01
(PID.TID 0000.0001)                       cg2d_iters =    45
(PID.TID 0000.0001)                         cg2d_res =    5.12415163303431E-14
(PID.TID 0000.0001)  MDSREADVECTOR: opening file: tapelev2_1_the_main_loop_gsnm1.it0000.001.001.data
(PID.TID 0000.0001)  MDS_READ_RL_VEC: irec =  00000001   00015456
(PID.TID 0000.0001)  MDSREADVECTOR: opening file: tapelev2_2_the_main_loop_gtnm1.it0000.001.001.data
(PID.TID 0000.0001)  MDS_READ_RL_VEC: irec =  00000001   00015456
(PID.TID 0000.0001)  MDSREADVECTOR: opening file: tapelev2_3_the_main_loop_gunm1.it0000.001.001.data
(PID.TID 0000.0001)  MDS_READ_RL_VEC: irec =  00000001   00015456
(PID.TID 0000.0001)  MDSREADVECTOR: opening file: tapelev2_4_the_main_loop_gvnm1.it0000.001.001.data
(PID.TID 0000.0001)  MDS_READ_RL_VEC: irec =  00000001   00015456
(PID.TID 0000.0001)  MDSREADVECTOR: opening file: tapelev2_5_the_main_loop_theta.it0000.001.001.data
(PID.TID 0000.0001)  MDS_READ_RL_VEC: irec =  00000001   00015456
(PID.TID 0000.0001)  MDSREADVECTOR: opening file: tapelev2_6_the_main_loop_salt.it0000.001.001.data
(PID.TID 0000.0001)  MDS_READ_RL_VEC: irec =  00000001   00015456
(PID.TID 0000.0001)  MDSREADVECTOR: opening file: tapelev2_7_the_main_loop_uvel.it0000.001.001.data
(PID.TID 0000.0001)  MDS_READ_RL_VEC: irec =  00000001   00015456
(PID.TID 0000.0001)  MDSREADVECTOR: opening file: tapelev2_8_the_main_loop_vvel.it0000.001.001.data
(PID.TID 0000.0001)  MDS_READ_RL_VEC: irec =  00000001   00015456
(PID.TID 0000.0001)  MDSREADVECTOR: opening file: tapelev2_9_the_main_loop_wvel.it0000.001.001.data
(PID.TID 0000.0001)  MDS_READ_RL_VEC: irec =  00000001   00015456
(PID.TID 0000.0001)  MDSREADVECTOR: opening file: tapelev2_10_the_main_loop_etan.it0000.001.001.data
(PID.TID 0000.0001)  MDS_READ_RL_VEC: irec =  00000001   00000672
(PID.TID 0000.0001)  MDSREADVECTOR: opening file: tapelev2_11_the_main_loop_gu.it0000.001.001.data
(PID.TID 0000.0001)  MDS_READ_RL_VEC: irec =  00000001   00015456
(PID.TID 0000.0001)  MDSREADVECTOR: opening file: tapelev2_12_the_main_loop_gv.it0000.001.001.data
(PID.TID 0000.0001)  MDS_READ_RL_VEC: irec =  00000001   00015456
(PID.TID 0000.0001)  MDSREADVECTOR: opening file: tapelev2_13_the_main_loop_uveld.it0000.001.001.data
(PID.TID 0000.0001)  MDS_READ_RL_VEC: irec =  00000001   00015456
(PID.TID 0000.0001)  MDSREADVECTOR: opening file: tapelev2_14_the_main_loop_vveld.it0000.001.001.data
(PID.TID 0000.0001)  MDS_READ_RL_VEC: irec =  00000001   00015456
(PID.TID 0000.0001)  MDSREADVECTOR: opening file: tapelev2_15_the_main_loop_etanm1.it0000.001.001.data
(PID.TID 0000.0001)  MDS_READ_RL_VEC: irec =  00000001   00000672
(PID.TID 0000.0001)  MDSREADVECTOR: opening file: tapelev2_16_the_main_loop_unm1.it0000.001.001.data
(PID.TID 0000.0001)  MDS_READ_RL_VEC: irec =  00000001   00015456
(PID.TID 0000.0001)  MDSREADVECTOR: opening file: tapelev2_17_the_main_loop_vnm1.it0000.001.001.data
(PID.TID 0000.0001)  MDS_READ_RL_VEC: irec =  00000001   00015456
(PID.TID 0000.0001)  MDSREADVECTOR: opening file: tapelev2_18_the_main_loop_gucd.it0000.001.001.data
(PID.TID 0000.0001)  MDS_READ_RL_VEC: irec =  00000001   00015456
(PID.TID 0000.0001)  MDSREADVECTOR: opening file: tapelev2_19_the_main_loop_gvcd.it0000.001.001.data
(PID.TID 0000.0001)  MDS_READ_RL_VEC: irec =  00000001   00015456
(PID.TID 0000.0001)  MDSREADVECTOR: opening file: tapelev2_20_the_main_loop_etah.it0000.001.001.data
(PID.TID 0000.0001)  MDS_READ_RL_VEC: irec =  00000001   00000672
(PID.TID 0000.0001)  MDSREADVECTOR: opening file: tapelev2_21_the_main_loop_hdivflow.it0000.001.001.data
(PID.TID 0000.0001)  MDS_READ_RL_VEC: irec =  00000001   00000672
(PID.TID 0000.0001)  MDSREADVECTOR: opening file: tapelev2_22_the_main_loop_aqh0.it0000.001.001.data
(PID.TID 0000.0001)  MDS_READ_RL_VEC: irec =  00000001   00000672
(PID.TID 0000.0001)  MDSREADVECTOR: opening file: tapelev2_23_the_main_loop_aqh1.it0000.001.001.data
(PID.TID 0000.0001)  MDS_READ_RL_VEC: irec =  00000001   00000672
(PID.TID 0000.0001)  MDSREADVECTOR: opening file: tapelev2_24_the_main_loop_atemp0.it0000.001.001.data
(PID.TID 0000.0001)  MDS_READ_RL_VEC: irec =  00000001   00000672
(PID.TID 0000.0001)  MDSREADVECTOR: opening file: tapelev2_25_the_main_loop_atemp1.it0000.001.001.data
(PID.TID 0000.0001)  MDS_READ_RL_VEC: irec =  00000001   00000672
(PID.TID 0000.0001)  MDSREADVECTOR: opening file: tapelev2_26_the_main_loop_precip0.it0000.001.001.data
(PID.TID 0000.0001)  MDS_READ_RL_VEC: irec =  00000001   00000672
(PID.TID 0000.0001)  MDSREADVECTOR: opening file: tapelev2_27_the_main_loop_precip1.it0000.001.001.data
(PID.TID 0000.0001)  MDS_READ_RL_VEC: irec =  00000001   00000672
(PID.TID 0000.0001)  MDSREADVECTOR: opening file: tapelev2_28_the_main_loop_lwflux0.it0000.001.001.data
(PID.TID 0000.0001)  MDS_READ_RL_VEC: irec =  00000001   00000672
(PID.TID 0000.0001)  MDSREADVECTOR: opening file: tapelev2_29_the_main_loop_lwflux1.it0000.001.001.data
(PID.TID 0000.0001)  MDS_READ_RL_VEC: irec =  00000001   00000672
(PID.TID 0000.0001)  MDSREADVECTOR: opening file: tapelev2_30_the_main_loop_swflux0.it0000.001.001.data
(PID.TID 0000.0001)  MDS_READ_RL_VEC: irec =  00000001   00000672
(PID.TID 0000.0001)  MDSREADVECTOR: opening file: tapelev2_31_the_main_loop_swflux1.it0000.001.001.data
(PID.TID 0000.0001)  MDS_READ_RL_VEC: irec =  00000001   00000672
(PID.TID 0000.0001)  MDSREADVECTOR: opening file: tapelev2_32_the_main_loop_evap.it0000.001.001.data
(PID.TID 0000.0001)  MDS_READ_RL_VEC: irec =  00000001   00000672
(PID.TID 0000.0001)  MDSREADVECTOR: opening file: tapelev2_33_the_main_loop_uwind0.it0000.001.001.data
(PID.TID 0000.0001)  MDS_READ_RL_VEC: irec =  00000001   00000672
(PID.TID 0000.0001)  MDSREADVECTOR: opening file: tapelev2_34_the_main_loop_uwind1.it0000.001.001.data
(PID.TID 0000.0001)  MDS_READ_RL_VEC: irec =  00000001   00000672
(PID.TID 0000.0001)  MDSREADVECTOR: opening file: tapelev2_35_the_main_loop_vwind0.it0000.001.001.data
(PID.TID 0000.0001)  MDS_READ_RL_VEC: irec =  00000001   00000672
(PID.TID 0000.0001)  MDSREADVECTOR: opening file: tapelev2_36_the_main_loop_vwind1.it0000.001.001.data
(PID.TID 0000.0001)  MDS_READ_RL_VEC: irec =  00000001   00000672
(PID.TID 0000.0001) 
(PID.TID 0000.0001)  exf_GetFFieldsRec: first, changed, fac:   T   F   0.50000000E+00
(PID.TID 0000.0001)  exf_GetFFieldsRec:      count0, count1:   1   2
(PID.TID 0000.0001) 
(PID.TID 0000.0001)  MDSREADFIELD: opening global file: u10m.labsea79
(PID.TID 0000.0001)  MDSREADFIELD: opening global file: u10m.labsea79
(PID.TID 0000.0001) 
(PID.TID 0000.0001)  exf_GetFFieldsRec: first, changed, fac:   T   F   0.50000000E+00
(PID.TID 0000.0001)  exf_GetFFieldsRec:      count0, count1:   1   2
(PID.TID 0000.0001) 
(PID.TID 0000.0001)  MDSREADFIELD: opening global file: v10m.labsea79
(PID.TID 0000.0001)  MDSREADFIELD: opening global file: v10m.labsea79
(PID.TID 0000.0001)  MDSREADFIELD: opening file: xx_uwind.0000000000.001.001.data
(PID.TID 0000.0001)  MDSREADFIELD: opening file: xx_uwind.0000000000.001.001.data
(PID.TID 0000.0001)  MDSREADFIELD: opening file: xx_vwind.0000000000.001.001.data
(PID.TID 0000.0001)  MDSREADFIELD: opening file: xx_vwind.0000000000.001.001.data
(PID.TID 0000.0001) 
(PID.TID 0000.0001)  exf_GetFFieldsRec: first, changed, fac:   T   F   0.50000000E+00
(PID.TID 0000.0001)  exf_GetFFieldsRec:      count0, count1:   1   2
(PID.TID 0000.0001) 
(PID.TID 0000.0001)  MDSREADFIELD: opening global file: tair.labsea1979
(PID.TID 0000.0001)  MDSREADFIELD: opening global file: tair.labsea1979
(PID.TID 0000.0001) 
(PID.TID 0000.0001)  exf_GetFFieldsRec: first, changed, fac:   T   F   0.50000000E+00
(PID.TID 0000.0001)  exf_GetFFieldsRec:      count0, count1:   1   2
(PID.TID 0000.0001) 
(PID.TID 0000.0001)  MDSREADFIELD: opening global file: qa.labsea1979
(PID.TID 0000.0001)  MDSREADFIELD: opening global file: qa.labsea1979
(PID.TID 0000.0001) 
(PID.TID 0000.0001)  exf_GetFFieldsRec: first, changed, fac:   T   F   0.50000000E+00
(PID.TID 0000.0001)  exf_GetFFieldsRec:      count0, count1:   1   2
(PID.TID 0000.0001) 
(PID.TID 0000.0001)  MDSREADFIELD: opening global file: prate.labsea1979
(PID.TID 0000.0001)  MDSREADFIELD: opening global file: prate.labsea1979
(PID.TID 0000.0001)  MDSREADFIELD: opening file: xx_atemp.0000000000.001.001.data
(PID.TID 0000.0001)  MDSREADFIELD: opening file: xx_atemp.0000000000.001.001.data
(PID.TID 0000.0001)  MDSREADFIELD: opening file: xx_aqh.0000000000.001.001.data
(PID.TID 0000.0001)  MDSREADFIELD: opening file: xx_aqh.0000000000.001.001.data
(PID.TID 0000.0001) 
(PID.TID 0000.0001)  exf_GetFFieldsRec: first, changed, fac:   T   F   0.50000000E+00
(PID.TID 0000.0001)  exf_GetFFieldsRec:      count0, count1:   1   2
(PID.TID 0000.0001) 
(PID.TID 0000.0001)  MDSREADFIELD: opening global file: fsh.labsea1979
(PID.TID 0000.0001)  MDSREADFIELD: opening global file: fsh.labsea1979
(PID.TID 0000.0001) 
(PID.TID 0000.0001)  exf_GetFFieldsRec: first, changed, fac:   T   F   0.50000000E+00
(PID.TID 0000.0001)  exf_GetFFieldsRec:      count0, count1:   1   2
(PID.TID 0000.0001) 
(PID.TID 0000.0001)  MDSREADFIELD: opening global file: flo.labsea1979
(PID.TID 0000.0001)  MDSREADFIELD: opening global file: flo.labsea1979
 cg2d: Sum(rhs),rhsMax =   1.95590071916385E-16  1.00807802167630E+00
(PID.TID 0000.0001)                    cg2d_init_res =    1.61521300655486E+00
(PID.TID 0000.0001)                       cg2d_iters =    47
(PID.TID 0000.0001)                         cg2d_res =    5.70138941994743E-14
(PID.TID 0000.0001) 
(PID.TID 0000.0001)  exf_GetFFieldsRec: first, changed, fac:   F   F   0.49863388E+00
(PID.TID 0000.0001)  exf_GetFFieldsRec:      count0, count1:   1   2
(PID.TID 0000.0001) 
(PID.TID 0000.0001) 
(PID.TID 0000.0001)  exf_GetFFieldsRec: first, changed, fac:   F   F   0.49863388E+00
(PID.TID 0000.0001)  exf_GetFFieldsRec:      count0, count1:   1   2
(PID.TID 0000.0001) 
(PID.TID 0000.0001)  MDSREADFIELD: opening file: xx_uwind.0000000000.001.001.data
(PID.TID 0000.0001)  MDSREADFIELD: opening file: xx_uwind.0000000000.001.001.data
(PID.TID 0000.0001)  MDSREADFIELD: opening file: xx_vwind.0000000000.001.001.data
(PID.TID 0000.0001)  MDSREADFIELD: opening file: xx_vwind.0000000000.001.001.data
(PID.TID 0000.0001) 
(PID.TID 0000.0001)  exf_GetFFieldsRec: first, changed, fac:   F   F   0.49863388E+00
(PID.TID 0000.0001)  exf_GetFFieldsRec:      count0, count1:   1   2
(PID.TID 0000.0001) 
(PID.TID 0000.0001) 
(PID.TID 0000.0001)  exf_GetFFieldsRec: first, changed, fac:   F   F   0.49863388E+00
(PID.TID 0000.0001)  exf_GetFFieldsRec:      count0, count1:   1   2
(PID.TID 0000.0001) 
(PID.TID 0000.0001) 
(PID.TID 0000.0001)  exf_GetFFieldsRec: first, changed, fac:   F   F   0.49863388E+00
(PID.TID 0000.0001)  exf_GetFFieldsRec:      count0, count1:   1   2
(PID.TID 0000.0001) 
(PID.TID 0000.0001)  MDSREADFIELD: opening file: xx_atemp.0000000000.001.001.data
(PID.TID 0000.0001)  MDSREADFIELD: opening file: xx_atemp.0000000000.001.001.data
(PID.TID 0000.0001)  MDSREADFIELD: opening file: xx_aqh.0000000000.001.001.data
(PID.TID 0000.0001)  MDSREADFIELD: opening file: xx_aqh.0000000000.001.001.data
(PID.TID 0000.0001) 
(PID.TID 0000.0001)  exf_GetFFieldsRec: first, changed, fac:   F   F   0.49863388E+00
(PID.TID 0000.0001)  exf_GetFFieldsRec:      count0, count1:   1   2
(PID.TID 0000.0001) 
(PID.TID 0000.0001) 
(PID.TID 0000.0001)  exf_GetFFieldsRec: first, changed, fac:   F   F   0.49863388E+00
(PID.TID 0000.0001)  exf_GetFFieldsRec:      count0, count1:   1   2
(PID.TID 0000.0001) 
 cg2d: Sum(rhs),rhsMax =   7.37474317724640E-16  1.23585471329616E+00
(PID.TID 0000.0001)                    cg2d_init_res =    3.48544561450945E-01
(PID.TID 0000.0001)                       cg2d_iters =    45
(PID.TID 0000.0001)                         cg2d_res =    6.49477568692734E-14
(PID.TID 0000.0001) 
(PID.TID 0000.0001)  exf_GetFFieldsRec: first, changed, fac:   F   F   0.49726776E+00
(PID.TID 0000.0001)  exf_GetFFieldsRec:      count0, count1:   1   2
(PID.TID 0000.0001) 
(PID.TID 0000.0001) 
(PID.TID 0000.0001)  exf_GetFFieldsRec: first, changed, fac:   F   F   0.49726776E+00
(PID.TID 0000.0001)  exf_GetFFieldsRec:      count0, count1:   1   2
(PID.TID 0000.0001) 
(PID.TID 0000.0001)  MDSREADFIELD: opening file: xx_uwind.0000000000.001.001.data
(PID.TID 0000.0001)  MDSREADFIELD: opening file: xx_uwind.0000000000.001.001.data
(PID.TID 0000.0001)  MDSREADFIELD: opening file: xx_vwind.0000000000.001.001.data
(PID.TID 0000.0001)  MDSREADFIELD: opening file: xx_vwind.0000000000.001.001.data
(PID.TID 0000.0001) 
(PID.TID 0000.0001)  exf_GetFFieldsRec: first, changed, fac:   F   F   0.49726776E+00
(PID.TID 0000.0001)  exf_GetFFieldsRec:      count0, count1:   1   2
(PID.TID 0000.0001) 
(PID.TID 0000.0001) 
(PID.TID 0000.0001)  exf_GetFFieldsRec: first, changed, fac:   F   F   0.49726776E+00
(PID.TID 0000.0001)  exf_GetFFieldsRec:      count0, count1:   1   2
(PID.TID 0000.0001) 
(PID.TID 0000.0001) 
(PID.TID 0000.0001)  exf_GetFFieldsRec: first, changed, fac:   F   F   0.49726776E+00
(PID.TID 0000.0001)  exf_GetFFieldsRec:      count0, count1:   1   2
(PID.TID 0000.0001) 
(PID.TID 0000.0001)  MDSREADFIELD: opening file: xx_atemp.0000000000.001.001.data
(PID.TID 0000.0001)  MDSREADFIELD: opening file: xx_atemp.0000000000.001.001.data
(PID.TID 0000.0001)  MDSREADFIELD: opening file: xx_aqh.0000000000.001.001.data
(PID.TID 0000.0001)  MDSREADFIELD: opening file: xx_aqh.0000000000.001.001.data
(PID.TID 0000.0001) 
(PID.TID 0000.0001)  exf_GetFFieldsRec: first, changed, fac:   F   F   0.49726776E+00
(PID.TID 0000.0001)  exf_GetFFieldsRec:      count0, count1:   1   2
(PID.TID 0000.0001) 
(PID.TID 0000.0001) 
(PID.TID 0000.0001)  exf_GetFFieldsRec: first, changed, fac:   F   F   0.49726776E+00
(PID.TID 0000.0001)  exf_GetFFieldsRec:      count0, count1:   1   2
(PID.TID 0000.0001) 
 cg2d: Sum(rhs),rhsMax =   6.20553955443803E-15  1.25438452343302E+00
(PID.TID 0000.0001)                    cg2d_init_res =    2.36078257971889E-01
(PID.TID 0000.0001)                       cg2d_iters =    45
(PID.TID 0000.0001)                         cg2d_res =    6.62546240702124E-14
(PID.TID 0000.0001) 
(PID.TID 0000.0001)  exf_GetFFieldsRec: first, changed, fac:   F   F   0.49590164E+00
(PID.TID 0000.0001)  exf_GetFFieldsRec:      count0, count1:   1   2
(PID.TID 0000.0001) 
(PID.TID 0000.0001) 
(PID.TID 0000.0001)  exf_GetFFieldsRec: first, changed, fac:   F   F   0.49590164E+00
(PID.TID 0000.0001)  exf_GetFFieldsRec:      count0, count1:   1   2
(PID.TID 0000.0001) 
(PID.TID 0000.0001)  MDSREADFIELD: opening file: xx_uwind.0000000000.001.001.data
(PID.TID 0000.0001)  MDSREADFIELD: opening file: xx_uwind.0000000000.001.001.data
(PID.TID 0000.0001)  MDSREADFIELD: opening file: xx_vwind.0000000000.001.001.data
(PID.TID 0000.0001)  MDSREADFIELD: opening file: xx_vwind.0000000000.001.001.data
(PID.TID 0000.0001) 
(PID.TID 0000.0001)  exf_GetFFieldsRec: first, changed, fac:   F   F   0.49590164E+00
(PID.TID 0000.0001)  exf_GetFFieldsRec:      count0, count1:   1   2
(PID.TID 0000.0001) 
(PID.TID 0000.0001) 
(PID.TID 0000.0001)  exf_GetFFieldsRec: first, changed, fac:   F   F   0.49590164E+00
(PID.TID 0000.0001)  exf_GetFFieldsRec:      count0, count1:   1   2
(PID.TID 0000.0001) 
(PID.TID 0000.0001) 
(PID.TID 0000.0001)  exf_GetFFieldsRec: first, changed, fac:   F   F   0.49590164E+00
(PID.TID 0000.0001)  exf_GetFFieldsRec:      count0, count1:   1   2
(PID.TID 0000.0001) 
(PID.TID 0000.0001)  MDSREADFIELD: opening file: xx_atemp.0000000000.001.001.data
(PID.TID 0000.0001)  MDSREADFIELD: opening file: xx_atemp.0000000000.001.001.data
(PID.TID 0000.0001)  MDSREADFIELD: opening file: xx_aqh.0000000000.001.001.data
(PID.TID 0000.0001)  MDSREADFIELD: opening file: xx_aqh.0000000000.001.001.data
(PID.TID 0000.0001) 
(PID.TID 0000.0001)  exf_GetFFieldsRec: first, changed, fac:   F   F   0.49590164E+00
(PID.TID 0000.0001)  exf_GetFFieldsRec:      count0, count1:   1   2
(PID.TID 0000.0001) 
(PID.TID 0000.0001) 
(PID.TID 0000.0001)  exf_GetFFieldsRec: first, changed, fac:   F   F   0.49590164E+00
(PID.TID 0000.0001)  exf_GetFFieldsRec:      count0, count1:   1   2
(PID.TID 0000.0001) 
 cg2d: Sum(rhs),rhsMax =   3.20620266447413E-15  1.25494322187447E+00
(PID.TID 0000.0001)                    cg2d_init_res =    1.82553144014713E-01
(PID.TID 0000.0001)                       cg2d_iters =    45
(PID.TID 0000.0001)                         cg2d_res =    5.12415163303431E-14
(PID.TID 0000.0001)  MDSREADVECTOR: opening file: tapelev2_1_the_main_loop_gsnm1.it0000.001.001.data
(PID.TID 0000.0001)  MDS_READ_RL_VEC: irec =  00000001   00015456
(PID.TID 0000.0001)  MDSREADVECTOR: opening file: tapelev2_2_the_main_loop_gtnm1.it0000.001.001.data
(PID.TID 0000.0001)  MDS_READ_RL_VEC: irec =  00000001   00015456
(PID.TID 0000.0001)  MDSREADVECTOR: opening file: tapelev2_3_the_main_loop_gunm1.it0000.001.001.data
(PID.TID 0000.0001)  MDS_READ_RL_VEC: irec =  00000001   00015456
(PID.TID 0000.0001)  MDSREADVECTOR: opening file: tapelev2_4_the_main_loop_gvnm1.it0000.001.001.data
(PID.TID 0000.0001)  MDS_READ_RL_VEC: irec =  00000001   00015456
(PID.TID 0000.0001)  MDSREADVECTOR: opening file: tapelev2_5_the_main_loop_theta.it0000.001.001.data
(PID.TID 0000.0001)  MDS_READ_RL_VEC: irec =  00000001   00015456
(PID.TID 0000.0001)  MDSREADVECTOR: opening file: tapelev2_6_the_main_loop_salt.it0000.001.001.data
(PID.TID 0000.0001)  MDS_READ_RL_VEC: irec =  00000001   00015456
(PID.TID 0000.0001)  MDSREADVECTOR: opening file: tapelev2_7_the_main_loop_uvel.it0000.001.001.data
(PID.TID 0000.0001)  MDS_READ_RL_VEC: irec =  00000001   00015456
(PID.TID 0000.0001)  MDSREADVECTOR: opening file: tapelev2_8_the_main_loop_vvel.it0000.001.001.data
(PID.TID 0000.0001)  MDS_READ_RL_VEC: irec =  00000001   00015456
(PID.TID 0000.0001)  MDSREADVECTOR: opening file: tapelev2_9_the_main_loop_wvel.it0000.001.001.data
(PID.TID 0000.0001)  MDS_READ_RL_VEC: irec =  00000001   00015456
(PID.TID 0000.0001)  MDSREADVECTOR: opening file: tapelev2_10_the_main_loop_etan.it0000.001.001.data
(PID.TID 0000.0001)  MDS_READ_RL_VEC: irec =  00000001   00000672
(PID.TID 0000.0001)  MDSREADVECTOR: opening file: tapelev2_11_the_main_loop_gu.it0000.001.001.data
(PID.TID 0000.0001)  MDS_READ_RL_VEC: irec =  00000001   00015456
(PID.TID 0000.0001)  MDSREADVECTOR: opening file: tapelev2_12_the_main_loop_gv.it0000.001.001.data
(PID.TID 0000.0001)  MDS_READ_RL_VEC: irec =  00000001   00015456
(PID.TID 0000.0001)  MDSREADVECTOR: opening file: tapelev2_13_the_main_loop_uveld.it0000.001.001.data
(PID.TID 0000.0001)  MDS_READ_RL_VEC: irec =  00000001   00015456
(PID.TID 0000.0001)  MDSREADVECTOR: opening file: tapelev2_14_the_main_loop_vveld.it0000.001.001.data
(PID.TID 0000.0001)  MDS_READ_RL_VEC: irec =  00000001   00015456
(PID.TID 0000.0001)  MDSREADVECTOR: opening file: tapelev2_15_the_main_loop_etanm1.it0000.001.001.data
(PID.TID 0000.0001)  MDS_READ_RL_VEC: irec =  00000001   00000672
(PID.TID 0000.0001)  MDSREADVECTOR: opening file: tapelev2_16_the_main_loop_unm1.it0000.001.001.data
(PID.TID 0000.0001)  MDS_READ_RL_VEC: irec =  00000001   00015456
(PID.TID 0000.0001)  MDSREADVECTOR: opening file: tapelev2_17_the_main_loop_vnm1.it0000.001.001.data
(PID.TID 0000.0001)  MDS_READ_RL_VEC: irec =  00000001   00015456
(PID.TID 0000.0001)  MDSREADVECTOR: opening file: tapelev2_18_the_main_loop_gucd.it0000.001.001.data
(PID.TID 0000.0001)  MDS_READ_RL_VEC: irec =  00000001   00015456
(PID.TID 0000.0001)  MDSREADVECTOR: opening file: tapelev2_19_the_main_loop_gvcd.it0000.001.001.data
(PID.TID 0000.0001)  MDS_READ_RL_VEC: irec =  00000001   00015456
(PID.TID 0000.0001)  MDSREADVECTOR: opening file: tapelev2_20_the_main_loop_etah.it0000.001.001.data
(PID.TID 0000.0001)  MDS_READ_RL_VEC: irec =  00000001   00000672
(PID.TID 0000.0001)  MDSREADVECTOR: opening file: tapelev2_21_the_main_loop_hdivflow.it0000.001.001.data
(PID.TID 0000.0001)  MDS_READ_RL_VEC: irec =  00000001   00000672
(PID.TID 0000.0001)  MDSREADVECTOR: opening file: tapelev2_22_the_main_loop_aqh0.it0000.001.001.data
(PID.TID 0000.0001)  MDS_READ_RL_VEC: irec =  00000001   00000672
(PID.TID 0000.0001)  MDSREADVECTOR: opening file: tapelev2_23_the_main_loop_aqh1.it0000.001.001.data
(PID.TID 0000.0001)  MDS_READ_RL_VEC: irec =  00000001   00000672
(PID.TID 0000.0001)  MDSREADVECTOR: opening file: tapelev2_24_the_main_loop_atemp0.it0000.001.001.data
(PID.TID 0000.0001)  MDS_READ_RL_VEC: irec =  00000001   00000672
(PID.TID 0000.0001)  MDSREADVECTOR: opening file: tapelev2_25_the_main_loop_atemp1.it0000.001.001.data
(PID.TID 0000.0001)  MDS_READ_RL_VEC: irec =  00000001   00000672
(PID.TID 0000.0001)  MDSREADVECTOR: opening file: tapelev2_26_the_main_loop_precip0.it0000.001.001.data
(PID.TID 0000.0001)  MDS_READ_RL_VEC: irec =  00000001   00000672
(PID.TID 0000.0001)  MDSREADVECTOR: opening file: tapelev2_27_the_main_loop_precip1.it0000.001.001.data
(PID.TID 0000.0001)  MDS_READ_RL_VEC: irec =  00000001   00000672
(PID.TID 0000.0001)  MDSREADVECTOR: opening file: tapelev2_28_the_main_loop_lwflux0.it0000.001.001.data
(PID.TID 0000.0001)  MDS_READ_RL_VEC: irec =  00000001   00000672
(PID.TID 0000.0001)  MDSREADVECTOR: opening file: tapelev2_29_the_main_loop_lwflux1.it0000.001.001.data
(PID.TID 0000.0001)  MDS_READ_RL_VEC: irec =  00000001   00000672
(PID.TID 0000.0001)  MDSREADVECTOR: opening file: tapelev2_30_the_main_loop_swflux0.it0000.001.001.data
(PID.TID 0000.0001)  MDS_READ_RL_VEC: irec =  00000001   00000672
(PID.TID 0000.0001)  MDSREADVECTOR: opening file: tapelev2_31_the_main_loop_swflux1.it0000.001.001.data
(PID.TID 0000.0001)  MDS_READ_RL_VEC: irec =  00000001   00000672
(PID.TID 0000.0001)  MDSREADVECTOR: opening file: tapelev2_32_the_main_loop_evap.it0000.001.001.data
(PID.TID 0000.0001)  MDS_READ_RL_VEC: irec =  00000001   00000672
(PID.TID 0000.0001)  MDSREADVECTOR: opening file: tapelev2_33_the_main_loop_uwind0.it0000.001.001.data
(PID.TID 0000.0001)  MDS_READ_RL_VEC: irec =  00000001   00000672
(PID.TID 0000.0001)  MDSREADVECTOR: opening file: tapelev2_34_the_main_loop_uwind1.it0000.001.001.data
(PID.TID 0000.0001)  MDS_READ_RL_VEC: irec =  00000001   00000672
(PID.TID 0000.0001)  MDSREADVECTOR: opening file: tapelev2_35_the_main_loop_vwind0.it0000.001.001.data
(PID.TID 0000.0001)  MDS_READ_RL_VEC: irec =  00000001   00000672
(PID.TID 0000.0001)  MDSREADVECTOR: opening file: tapelev2_36_the_main_loop_vwind1.it0000.001.001.data
(PID.TID 0000.0001)  MDS_READ_RL_VEC: irec =  00000001   00000672
(PID.TID 0000.0001) 
(PID.TID 0000.0001)  exf_GetFFieldsRec: first, changed, fac:   T   F   0.50000000E+00
(PID.TID 0000.0001)  exf_GetFFieldsRec:      count0, count1:   1   2
(PID.TID 0000.0001) 
(PID.TID 0000.0001)  MDSREADFIELD: opening global file: u10m.labsea79
(PID.TID 0000.0001)  MDSREADFIELD: opening global file: u10m.labsea79
(PID.TID 0000.0001) 
(PID.TID 0000.0001)  exf_GetFFieldsRec: first, changed, fac:   T   F   0.50000000E+00
(PID.TID 0000.0001)  exf_GetFFieldsRec:      count0, count1:   1   2
(PID.TID 0000.0001) 
(PID.TID 0000.0001)  MDSREADFIELD: opening global file: v10m.labsea79
(PID.TID 0000.0001)  MDSREADFIELD: opening global file: v10m.labsea79
(PID.TID 0000.0001)  MDSREADFIELD: opening file: xx_uwind.0000000000.001.001.data
(PID.TID 0000.0001)  MDSREADFIELD: opening file: xx_uwind.0000000000.001.001.data
(PID.TID 0000.0001)  MDSREADFIELD: opening file: xx_vwind.0000000000.001.001.data
(PID.TID 0000.0001)  MDSREADFIELD: opening file: xx_vwind.0000000000.001.001.data
(PID.TID 0000.0001) 
(PID.TID 0000.0001)  exf_GetFFieldsRec: first, changed, fac:   T   F   0.50000000E+00
(PID.TID 0000.0001)  exf_GetFFieldsRec:      count0, count1:   1   2
(PID.TID 0000.0001) 
(PID.TID 0000.0001)  MDSREADFIELD: opening global file: tair.labsea1979
(PID.TID 0000.0001)  MDSREADFIELD: opening global file: tair.labsea1979
(PID.TID 0000.0001) 
(PID.TID 0000.0001)  exf_GetFFieldsRec: first, changed, fac:   T   F   0.50000000E+00
(PID.TID 0000.0001)  exf_GetFFieldsRec:      count0, count1:   1   2
(PID.TID 0000.0001) 
(PID.TID 0000.0001)  MDSREADFIELD: opening global file: qa.labsea1979
(PID.TID 0000.0001)  MDSREADFIELD: opening global file: qa.labsea1979
(PID.TID 0000.0001) 
(PID.TID 0000.0001)  exf_GetFFieldsRec: first, changed, fac:   T   F   0.50000000E+00
(PID.TID 0000.0001)  exf_GetFFieldsRec:      count0, count1:   1   2
(PID.TID 0000.0001) 
(PID.TID 0000.0001)  MDSREADFIELD: opening global file: prate.labsea1979
(PID.TID 0000.0001)  MDSREADFIELD: opening global file: prate.labsea1979
(PID.TID 0000.0001)  MDSREADFIELD: opening file: xx_atemp.0000000000.001.001.data
(PID.TID 0000.0001)  MDSREADFIELD: opening file: xx_atemp.0000000000.001.001.data
(PID.TID 0000.0001)  MDSREADFIELD: opening file: xx_aqh.0000000000.001.001.data
(PID.TID 0000.0001)  MDSREADFIELD: opening file: xx_aqh.0000000000.001.001.data
(PID.TID 0000.0001) 
(PID.TID 0000.0001)  exf_GetFFieldsRec: first, changed, fac:   T   F   0.50000000E+00
(PID.TID 0000.0001)  exf_GetFFieldsRec:      count0, count1:   1   2
(PID.TID 0000.0001) 
(PID.TID 0000.0001)  MDSREADFIELD: opening global file: fsh.labsea1979
(PID.TID 0000.0001)  MDSREADFIELD: opening global file: fsh.labsea1979
(PID.TID 0000.0001) 
(PID.TID 0000.0001)  exf_GetFFieldsRec: first, changed, fac:   T   F   0.50000000E+00
(PID.TID 0000.0001)  exf_GetFFieldsRec:      count0, count1:   1   2
(PID.TID 0000.0001) 
(PID.TID 0000.0001)  MDSREADFIELD: opening global file: flo.labsea1979
(PID.TID 0000.0001)  MDSREADFIELD: opening global file: flo.labsea1979
 cg2d: Sum(rhs),rhsMax =   1.95590071916385E-16  1.00807802167630E+00
(PID.TID 0000.0001)                    cg2d_init_res =    1.61521300655486E+00
(PID.TID 0000.0001)                       cg2d_iters =    47
(PID.TID 0000.0001)                         cg2d_res =    5.70138941994743E-14
(PID.TID 0000.0001) 
(PID.TID 0000.0001)  exf_GetFFieldsRec: first, changed, fac:   F   F   0.49863388E+00
(PID.TID 0000.0001)  exf_GetFFieldsRec:      count0, count1:   1   2
(PID.TID 0000.0001) 
(PID.TID 0000.0001) 
(PID.TID 0000.0001)  exf_GetFFieldsRec: first, changed, fac:   F   F   0.49863388E+00
(PID.TID 0000.0001)  exf_GetFFieldsRec:      count0, count1:   1   2
(PID.TID 0000.0001) 
(PID.TID 0000.0001)  MDSREADFIELD: opening file: xx_uwind.0000000000.001.001.data
(PID.TID 0000.0001)  MDSREADFIELD: opening file: xx_uwind.0000000000.001.001.data
(PID.TID 0000.0001)  MDSREADFIELD: opening file: xx_vwind.0000000000.001.001.data
(PID.TID 0000.0001)  MDSREADFIELD: opening file: xx_vwind.0000000000.001.001.data
(PID.TID 0000.0001) 
(PID.TID 0000.0001)  exf_GetFFieldsRec: first, changed, fac:   F   F   0.49863388E+00
(PID.TID 0000.0001)  exf_GetFFieldsRec:      count0, count1:   1   2
(PID.TID 0000.0001) 
(PID.TID 0000.0001) 
(PID.TID 0000.0001)  exf_GetFFieldsRec: first, changed, fac:   F   F   0.49863388E+00
(PID.TID 0000.0001)  exf_GetFFieldsRec:      count0, count1:   1   2
(PID.TID 0000.0001) 
(PID.TID 0000.0001) 
(PID.TID 0000.0001)  exf_GetFFieldsRec: first, changed, fac:   F   F   0.49863388E+00
(PID.TID 0000.0001)  exf_GetFFieldsRec:      count0, count1:   1   2
(PID.TID 0000.0001) 
(PID.TID 0000.0001)  MDSREADFIELD: opening file: xx_atemp.0000000000.001.001.data
(PID.TID 0000.0001)  MDSREADFIELD: opening file: xx_atemp.0000000000.001.001.data
(PID.TID 0000.0001)  MDSREADFIELD: opening file: xx_aqh.0000000000.001.001.data
(PID.TID 0000.0001)  MDSREADFIELD: opening file: xx_aqh.0000000000.001.001.data
(PID.TID 0000.0001) 
(PID.TID 0000.0001)  exf_GetFFieldsRec: first, changed, fac:   F   F   0.49863388E+00
(PID.TID 0000.0001)  exf_GetFFieldsRec:      count0, count1:   1   2
(PID.TID 0000.0001) 
(PID.TID 0000.0001) 
(PID.TID 0000.0001)  exf_GetFFieldsRec: first, changed, fac:   F   F   0.49863388E+00
(PID.TID 0000.0001)  exf_GetFFieldsRec:      count0, count1:   1   2
(PID.TID 0000.0001) 
 cg2d: Sum(rhs),rhsMax =   7.37474317724640E-16  1.23585471329616E+00
(PID.TID 0000.0001)                    cg2d_init_res =    3.48544561450945E-01
(PID.TID 0000.0001)                       cg2d_iters =    45
(PID.TID 0000.0001)                         cg2d_res =    6.49477568692734E-14
(PID.TID 0000.0001) 
(PID.TID 0000.0001)  exf_GetFFieldsRec: first, changed, fac:   F   F   0.49726776E+00
(PID.TID 0000.0001)  exf_GetFFieldsRec:      count0, count1:   1   2
(PID.TID 0000.0001) 
(PID.TID 0000.0001) 
(PID.TID 0000.0001)  exf_GetFFieldsRec: first, changed, fac:   F   F   0.49726776E+00
(PID.TID 0000.0001)  exf_GetFFieldsRec:      count0, count1:   1   2
(PID.TID 0000.0001) 
(PID.TID 0000.0001)  MDSREADFIELD: opening file: xx_uwind.0000000000.001.001.data
(PID.TID 0000.0001)  MDSREADFIELD: opening file: xx_uwind.0000000000.001.001.data
(PID.TID 0000.0001)  MDSREADFIELD: opening file: xx_vwind.0000000000.001.001.data
(PID.TID 0000.0001)  MDSREADFIELD: opening file: xx_vwind.0000000000.001.001.data
(PID.TID 0000.0001) 
(PID.TID 0000.0001)  exf_GetFFieldsRec: first, changed, fac:   F   F   0.49726776E+00
(PID.TID 0000.0001)  exf_GetFFieldsRec:      count0, count1:   1   2
(PID.TID 0000.0001) 
(PID.TID 0000.0001) 
(PID.TID 0000.0001)  exf_GetFFieldsRec: first, changed, fac:   F   F   0.49726776E+00
(PID.TID 0000.0001)  exf_GetFFieldsRec:      count0, count1:   1   2
(PID.TID 0000.0001) 
(PID.TID 0000.0001) 
(PID.TID 0000.0001)  exf_GetFFieldsRec: first, changed, fac:   F   F   0.49726776E+00
(PID.TID 0000.0001)  exf_GetFFieldsRec:      count0, count1:   1   2
(PID.TID 0000.0001) 
(PID.TID 0000.0001)  MDSREADFIELD: opening file: xx_atemp.0000000000.001.001.data
(PID.TID 0000.0001)  MDSREADFIELD: opening file: xx_atemp.0000000000.001.001.data
(PID.TID 0000.0001)  MDSREADFIELD: opening file: xx_aqh.0000000000.001.001.data
(PID.TID 0000.0001)  MDSREADFIELD: opening file: xx_aqh.0000000000.001.001.data
(PID.TID 0000.0001) 
(PID.TID 0000.0001)  exf_GetFFieldsRec: first, changed, fac:   F   F   0.49726776E+00
(PID.TID 0000.0001)  exf_GetFFieldsRec:      count0, count1:   1   2
(PID.TID 0000.0001) 
(PID.TID 0000.0001) 
(PID.TID 0000.0001)  exf_GetFFieldsRec: first, changed, fac:   F   F   0.49726776E+00
(PID.TID 0000.0001)  exf_GetFFieldsRec:      count0, count1:   1   2
(PID.TID 0000.0001) 
 cg2d: Sum(rhs),rhsMax =   6.20553955443803E-15  1.25438452343302E+00
(PID.TID 0000.0001)                    cg2d_init_res =    2.36078257971889E-01
(PID.TID 0000.0001)                       cg2d_iters =    45
(PID.TID 0000.0001)                         cg2d_res =    6.62546240702124E-14
(PID.TID 0000.0001) 
(PID.TID 0000.0001)  exf_GetFFieldsRec: first, changed, fac:   F   F   0.49590164E+00
(PID.TID 0000.0001)  exf_GetFFieldsRec:      count0, count1:   1   2
(PID.TID 0000.0001) 
(PID.TID 0000.0001) 
(PID.TID 0000.0001)  exf_GetFFieldsRec: first, changed, fac:   F   F   0.49590164E+00
(PID.TID 0000.0001)  exf_GetFFieldsRec:      count0, count1:   1   2
(PID.TID 0000.0001) 
(PID.TID 0000.0001)  MDSREADFIELD: opening file: xx_uwind.0000000000.001.001.data
(PID.TID 0000.0001)  MDSREADFIELD: opening file: xx_uwind.0000000000.001.001.data
(PID.TID 0000.0001)  MDSREADFIELD: opening file: xx_vwind.0000000000.001.001.data
(PID.TID 0000.0001)  MDSREADFIELD: opening file: xx_vwind.0000000000.001.001.data
(PID.TID 0000.0001) 
(PID.TID 0000.0001)  exf_GetFFieldsRec: first, changed, fac:   F   F   0.49590164E+00
(PID.TID 0000.0001)  exf_GetFFieldsRec:      count0, count1:   1   2
(PID.TID 0000.0001) 
(PID.TID 0000.0001) 
(PID.TID 0000.0001)  exf_GetFFieldsRec: first, changed, fac:   F   F   0.49590164E+00
(PID.TID 0000.0001)  exf_GetFFieldsRec:      count0, count1:   1   2
(PID.TID 0000.0001) 
(PID.TID 0000.0001) 
(PID.TID 0000.0001)  exf_GetFFieldsRec: first, changed, fac:   F   F   0.49590164E+00
(PID.TID 0000.0001)  exf_GetFFieldsRec:      count0, count1:   1   2
(PID.TID 0000.0001) 
(PID.TID 0000.0001)  MDSREADFIELD: opening file: xx_atemp.0000000000.001.001.data
(PID.TID 0000.0001)  MDSREADFIELD: opening file: xx_atemp.0000000000.001.001.data
(PID.TID 0000.0001)  MDSREADFIELD: opening file: xx_aqh.0000000000.001.001.data
(PID.TID 0000.0001)  MDSREADFIELD: opening file: xx_aqh.0000000000.001.001.data
(PID.TID 0000.0001) 
(PID.TID 0000.0001)  exf_GetFFieldsRec: first, changed, fac:   F   F   0.49590164E+00
(PID.TID 0000.0001)  exf_GetFFieldsRec:      count0, count1:   1   2
(PID.TID 0000.0001) 
(PID.TID 0000.0001) 
(PID.TID 0000.0001)  exf_GetFFieldsRec: first, changed, fac:   F   F   0.49590164E+00
(PID.TID 0000.0001)  exf_GetFFieldsRec:      count0, count1:   1   2
(PID.TID 0000.0001) 
 cg2d: Sum(rhs),rhsMax =   3.20620266447413E-15  1.25494322187447E+00
(PID.TID 0000.0001)                    cg2d_init_res =    1.82553144014713E-01
(PID.TID 0000.0001)                       cg2d_iters =    45
(PID.TID 0000.0001)                         cg2d_res =    5.12415163303431E-14
(PID.TID 0000.0001)  MDSREADVECTOR: opening file: tapelev2_1_the_main_loop_gsnm1.it0000.001.001.data
(PID.TID 0000.0001)  MDS_READ_RL_VEC: irec =  00000001   00015456
(PID.TID 0000.0001)  MDSREADVECTOR: opening file: tapelev2_2_the_main_loop_gtnm1.it0000.001.001.data
(PID.TID 0000.0001)  MDS_READ_RL_VEC: irec =  00000001   00015456
(PID.TID 0000.0001)  MDSREADVECTOR: opening file: tapelev2_3_the_main_loop_gunm1.it0000.001.001.data
(PID.TID 0000.0001)  MDS_READ_RL_VEC: irec =  00000001   00015456
(PID.TID 0000.0001)  MDSREADVECTOR: opening file: tapelev2_4_the_main_loop_gvnm1.it0000.001.001.data
(PID.TID 0000.0001)  MDS_READ_RL_VEC: irec =  00000001   00015456
(PID.TID 0000.0001)  MDSREADVECTOR: opening file: tapelev2_5_the_main_loop_theta.it0000.001.001.data
(PID.TID 0000.0001)  MDS_READ_RL_VEC: irec =  00000001   00015456
(PID.TID 0000.0001)  MDSREADVECTOR: opening file: tapelev2_6_the_main_loop_salt.it0000.001.001.data
(PID.TID 0000.0001)  MDS_READ_RL_VEC: irec =  00000001   00015456
(PID.TID 0000.0001)  MDSREADVECTOR: opening file: tapelev2_7_the_main_loop_uvel.it0000.001.001.data
(PID.TID 0000.0001)  MDS_READ_RL_VEC: irec =  00000001   00015456
(PID.TID 0000.0001)  MDSREADVECTOR: opening file: tapelev2_8_the_main_loop_vvel.it0000.001.001.data
(PID.TID 0000.0001)  MDS_READ_RL_VEC: irec =  00000001   00015456
(PID.TID 0000.0001)  MDSREADVECTOR: opening file: tapelev2_9_the_main_loop_wvel.it0000.001.001.data
(PID.TID 0000.0001)  MDS_READ_RL_VEC: irec =  00000001   00015456
(PID.TID 0000.0001)  MDSREADVECTOR: opening file: tapelev2_10_the_main_loop_etan.it0000.001.001.data
(PID.TID 0000.0001)  MDS_READ_RL_VEC: irec =  00000001   00000672
(PID.TID 0000.0001)  MDSREADVECTOR: opening file: tapelev2_11_the_main_loop_gu.it0000.001.001.data
(PID.TID 0000.0001)  MDS_READ_RL_VEC: irec =  00000001   00015456
(PID.TID 0000.0001)  MDSREADVECTOR: opening file: tapelev2_12_the_main_loop_gv.it0000.001.001.data
(PID.TID 0000.0001)  MDS_READ_RL_VEC: irec =  00000001   00015456
(PID.TID 0000.0001)  MDSREADVECTOR: opening file: tapelev2_13_the_main_loop_uveld.it0000.001.001.data
(PID.TID 0000.0001)  MDS_READ_RL_VEC: irec =  00000001   00015456
(PID.TID 0000.0001)  MDSREADVECTOR: opening file: tapelev2_14_the_main_loop_vveld.it0000.001.001.data
(PID.TID 0000.0001)  MDS_READ_RL_VEC: irec =  00000001   00015456
(PID.TID 0000.0001)  MDSREADVECTOR: opening file: tapelev2_15_the_main_loop_etanm1.it0000.001.001.data
(PID.TID 0000.0001)  MDS_READ_RL_VEC: irec =  00000001   00000672
(PID.TID 0000.0001)  MDSREADVECTOR: opening file: tapelev2_16_the_main_loop_unm1.it0000.001.001.data
(PID.TID 0000.0001)  MDS_READ_RL_VEC: irec =  00000001   00015456
(PID.TID 0000.0001)  MDSREADVECTOR: opening file: tapelev2_17_the_main_loop_vnm1.it0000.001.001.data
(PID.TID 0000.0001)  MDS_READ_RL_VEC: irec =  00000001   00015456
(PID.TID 0000.0001)  MDSREADVECTOR: opening file: tapelev2_18_the_main_loop_gucd.it0000.001.001.data
(PID.TID 0000.0001)  MDS_READ_RL_VEC: irec =  00000001   00015456
(PID.TID 0000.0001)  MDSREADVECTOR: opening file: tapelev2_19_the_main_loop_gvcd.it0000.001.001.data
(PID.TID 0000.0001)  MDS_READ_RL_VEC: irec =  00000001   00015456
(PID.TID 0000.0001)  MDSREADVECTOR: opening file: tapelev2_20_the_main_loop_etah.it0000.001.001.data
(PID.TID 0000.0001)  MDS_READ_RL_VEC: irec =  00000001   00000672
(PID.TID 0000.0001)  MDSREADVECTOR: opening file: tapelev2_21_the_main_loop_hdivflow.it0000.001.001.data
(PID.TID 0000.0001)  MDS_READ_RL_VEC: irec =  00000001   00000672
(PID.TID 0000.0001)  MDSREADVECTOR: opening file: tapelev2_22_the_main_loop_aqh0.it0000.001.001.data
(PID.TID 0000.0001)  MDS_READ_RL_VEC: irec =  00000001   00000672
(PID.TID 0000.0001)  MDSREADVECTOR: opening file: tapelev2_23_the_main_loop_aqh1.it0000.001.001.data
(PID.TID 0000.0001)  MDS_READ_RL_VEC: irec =  00000001   00000672
(PID.TID 0000.0001)  MDSREADVECTOR: opening file: tapelev2_24_the_main_loop_atemp0.it0000.001.001.data
(PID.TID 0000.0001)  MDS_READ_RL_VEC: irec =  00000001   00000672
(PID.TID 0000.0001)  MDSREADVECTOR: opening file: tapelev2_25_the_main_loop_atemp1.it0000.001.001.data
(PID.TID 0000.0001)  MDS_READ_RL_VEC: irec =  00000001   00000672
(PID.TID 0000.0001)  MDSREADVECTOR: opening file: tapelev2_26_the_main_loop_precip0.it0000.001.001.data
(PID.TID 0000.0001)  MDS_READ_RL_VEC: irec =  00000001   00000672
(PID.TID 0000.0001)  MDSREADVECTOR: opening file: tapelev2_27_the_main_loop_precip1.it0000.001.001.data
(PID.TID 0000.0001)  MDS_READ_RL_VEC: irec =  00000001   00000672
(PID.TID 0000.0001)  MDSREADVECTOR: opening file: tapelev2_28_the_main_loop_lwflux0.it0000.001.001.data
(PID.TID 0000.0001)  MDS_READ_RL_VEC: irec =  00000001   00000672
(PID.TID 0000.0001)  MDSREADVECTOR: opening file: tapelev2_29_the_main_loop_lwflux1.it0000.001.001.data
(PID.TID 0000.0001)  MDS_READ_RL_VEC: irec =  00000001   00000672
(PID.TID 0000.0001)  MDSREADVECTOR: opening file: tapelev2_30_the_main_loop_swflux0.it0000.001.001.data
(PID.TID 0000.0001)  MDS_READ_RL_VEC: irec =  00000001   00000672
(PID.TID 0000.0001)  MDSREADVECTOR: opening file: tapelev2_31_the_main_loop_swflux1.it0000.001.001.data
(PID.TID 0000.0001)  MDS_READ_RL_VEC: irec =  00000001   00000672
(PID.TID 0000.0001)  MDSREADVECTOR: opening file: tapelev2_32_the_main_loop_evap.it0000.001.001.data
(PID.TID 0000.0001)  MDS_READ_RL_VEC: irec =  00000001   00000672
(PID.TID 0000.0001)  MDSREADVECTOR: opening file: tapelev2_33_the_main_loop_uwind0.it0000.001.001.data
(PID.TID 0000.0001)  MDS_READ_RL_VEC: irec =  00000001   00000672
(PID.TID 0000.0001)  MDSREADVECTOR: opening file: tapelev2_34_the_main_loop_uwind1.it0000.001.001.data
(PID.TID 0000.0001)  MDS_READ_RL_VEC: irec =  00000001   00000672
(PID.TID 0000.0001)  MDSREADVECTOR: opening file: tapelev2_35_the_main_loop_vwind0.it0000.001.001.data
(PID.TID 0000.0001)  MDS_READ_RL_VEC: irec =  00000001   00000672
(PID.TID 0000.0001)  MDSREADVECTOR: opening file: tapelev2_36_the_main_loop_vwind1.it0000.001.001.data
(PID.TID 0000.0001)  MDS_READ_RL_VEC: irec =  00000001   00000672
(PID.TID 0000.0001) 
(PID.TID 0000.0001)  exf_GetFFieldsRec: first, changed, fac:   T   F   0.50000000E+00
(PID.TID 0000.0001)  exf_GetFFieldsRec:      count0, count1:   1   2
(PID.TID 0000.0001) 
(PID.TID 0000.0001)  MDSREADFIELD: opening global file: u10m.labsea79
(PID.TID 0000.0001)  MDSREADFIELD: opening global file: u10m.labsea79
(PID.TID 0000.0001) 
(PID.TID 0000.0001)  exf_GetFFieldsRec: first, changed, fac:   T   F   0.50000000E+00
(PID.TID 0000.0001)  exf_GetFFieldsRec:      count0, count1:   1   2
(PID.TID 0000.0001) 
(PID.TID 0000.0001)  MDSREADFIELD: opening global file: v10m.labsea79
(PID.TID 0000.0001)  MDSREADFIELD: opening global file: v10m.labsea79
(PID.TID 0000.0001)  MDSREADFIELD: opening file: xx_uwind.0000000000.001.001.data
(PID.TID 0000.0001)  MDSREADFIELD: opening file: xx_uwind.0000000000.001.001.data
(PID.TID 0000.0001)  MDSREADFIELD: opening file: xx_vwind.0000000000.001.001.data
(PID.TID 0000.0001)  MDSREADFIELD: opening file: xx_vwind.0000000000.001.001.data
(PID.TID 0000.0001) 
(PID.TID 0000.0001)  exf_GetFFieldsRec: first, changed, fac:   T   F   0.50000000E+00
(PID.TID 0000.0001)  exf_GetFFieldsRec:      count0, count1:   1   2
(PID.TID 0000.0001) 
(PID.TID 0000.0001)  MDSREADFIELD: opening global file: tair.labsea1979
(PID.TID 0000.0001)  MDSREADFIELD: opening global file: tair.labsea1979
(PID.TID 0000.0001) 
(PID.TID 0000.0001)  exf_GetFFieldsRec: first, changed, fac:   T   F   0.50000000E+00
(PID.TID 0000.0001)  exf_GetFFieldsRec:      count0, count1:   1   2
(PID.TID 0000.0001) 
(PID.TID 0000.0001)  MDSREADFIELD: opening global file: qa.labsea1979
(PID.TID 0000.0001)  MDSREADFIELD: opening global file: qa.labsea1979
(PID.TID 0000.0001) 
(PID.TID 0000.0001)  exf_GetFFieldsRec: first, changed, fac:   T   F   0.50000000E+00
(PID.TID 0000.0001)  exf_GetFFieldsRec:      count0, count1:   1   2
(PID.TID 0000.0001) 
(PID.TID 0000.0001)  MDSREADFIELD: opening global file: prate.labsea1979
(PID.TID 0000.0001)  MDSREADFIELD: opening global file: prate.labsea1979
(PID.TID 0000.0001)  MDSREADFIELD: opening file: xx_atemp.0000000000.001.001.data
(PID.TID 0000.0001)  MDSREADFIELD: opening file: xx_atemp.0000000000.001.001.data
(PID.TID 0000.0001)  MDSREADFIELD: opening file: xx_aqh.0000000000.001.001.data
(PID.TID 0000.0001)  MDSREADFIELD: opening file: xx_aqh.0000000000.001.001.data
(PID.TID 0000.0001) 
(PID.TID 0000.0001)  exf_GetFFieldsRec: first, changed, fac:   T   F   0.50000000E+00
(PID.TID 0000.0001)  exf_GetFFieldsRec:      count0, count1:   1   2
(PID.TID 0000.0001) 
(PID.TID 0000.0001)  MDSREADFIELD: opening global file: fsh.labsea1979
(PID.TID 0000.0001)  MDSREADFIELD: opening global file: fsh.labsea1979
(PID.TID 0000.0001) 
(PID.TID 0000.0001)  exf_GetFFieldsRec: first, changed, fac:   T   F   0.50000000E+00
(PID.TID 0000.0001)  exf_GetFFieldsRec:      count0, count1:   1   2
(PID.TID 0000.0001) 
(PID.TID 0000.0001)  MDSREADFIELD: opening global file: flo.labsea1979
(PID.TID 0000.0001)  MDSREADFIELD: opening global file: flo.labsea1979
 cg2d: Sum(rhs),rhsMax =   1.95590071916385E-16  1.00807802167630E+00
(PID.TID 0000.0001)                    cg2d_init_res =    1.61521300655486E+00
(PID.TID 0000.0001)                       cg2d_iters =    47
(PID.TID 0000.0001)                         cg2d_res =    5.70138941994743E-14
(PID.TID 0000.0001) 
(PID.TID 0000.0001)  exf_GetFFieldsRec: first, changed, fac:   F   F   0.49863388E+00
(PID.TID 0000.0001)  exf_GetFFieldsRec:      count0, count1:   1   2
(PID.TID 0000.0001) 
(PID.TID 0000.0001) 
(PID.TID 0000.0001)  exf_GetFFieldsRec: first, changed, fac:   F   F   0.49863388E+00
(PID.TID 0000.0001)  exf_GetFFieldsRec:      count0, count1:   1   2
(PID.TID 0000.0001) 
(PID.TID 0000.0001)  MDSREADFIELD: opening file: xx_uwind.0000000000.001.001.data
(PID.TID 0000.0001)  MDSREADFIELD: opening file: xx_uwind.0000000000.001.001.data
(PID.TID 0000.0001)  MDSREADFIELD: opening file: xx_vwind.0000000000.001.001.data
(PID.TID 0000.0001)  MDSREADFIELD: opening file: xx_vwind.0000000000.001.001.data
(PID.TID 0000.0001) 
(PID.TID 0000.0001)  exf_GetFFieldsRec: first, changed, fac:   F   F   0.49863388E+00
(PID.TID 0000.0001)  exf_GetFFieldsRec:      count0, count1:   1   2
(PID.TID 0000.0001) 
(PID.TID 0000.0001) 
(PID.TID 0000.0001)  exf_GetFFieldsRec: first, changed, fac:   F   F   0.49863388E+00
(PID.TID 0000.0001)  exf_GetFFieldsRec:      count0, count1:   1   2
(PID.TID 0000.0001) 
(PID.TID 0000.0001) 
(PID.TID 0000.0001)  exf_GetFFieldsRec: first, changed, fac:   F   F   0.49863388E+00
(PID.TID 0000.0001)  exf_GetFFieldsRec:      count0, count1:   1   2
(PID.TID 0000.0001) 
(PID.TID 0000.0001)  MDSREADFIELD: opening file: xx_atemp.0000000000.001.001.data
(PID.TID 0000.0001)  MDSREADFIELD: opening file: xx_atemp.0000000000.001.001.data
(PID.TID 0000.0001)  MDSREADFIELD: opening file: xx_aqh.0000000000.001.001.data
(PID.TID 0000.0001)  MDSREADFIELD: opening file: xx_aqh.0000000000.001.001.data
(PID.TID 0000.0001) 
(PID.TID 0000.0001)  exf_GetFFieldsRec: first, changed, fac:   F   F   0.49863388E+00
(PID.TID 0000.0001)  exf_GetFFieldsRec:      count0, count1:   1   2
(PID.TID 0000.0001) 
(PID.TID 0000.0001) 
(PID.TID 0000.0001)  exf_GetFFieldsRec: first, changed, fac:   F   F   0.49863388E+00
(PID.TID 0000.0001)  exf_GetFFieldsRec:      count0, count1:   1   2
(PID.TID 0000.0001) 
 cg2d: Sum(rhs),rhsMax =   7.37474317724640E-16  1.23585471329616E+00
(PID.TID 0000.0001)                    cg2d_init_res =    3.48544561450945E-01
(PID.TID 0000.0001)                       cg2d_iters =    45
(PID.TID 0000.0001)                         cg2d_res =    6.49477568692734E-14
(PID.TID 0000.0001) 
(PID.TID 0000.0001)  exf_GetFFieldsRec: first, changed, fac:   F   F   0.49726776E+00
(PID.TID 0000.0001)  exf_GetFFieldsRec:      count0, count1:   1   2
(PID.TID 0000.0001) 
(PID.TID 0000.0001) 
(PID.TID 0000.0001)  exf_GetFFieldsRec: first, changed, fac:   F   F   0.49726776E+00
(PID.TID 0000.0001)  exf_GetFFieldsRec:      count0, count1:   1   2
(PID.TID 0000.0001) 
(PID.TID 0000.0001)  MDSREADFIELD: opening file: xx_uwind.0000000000.001.001.data
(PID.TID 0000.0001)  MDSREADFIELD: opening file: xx_uwind.0000000000.001.001.data
(PID.TID 0000.0001)  MDSREADFIELD: opening file: xx_vwind.0000000000.001.001.data
(PID.TID 0000.0001)  MDSREADFIELD: opening file: xx_vwind.0000000000.001.001.data
(PID.TID 0000.0001) 
(PID.TID 0000.0001)  exf_GetFFieldsRec: first, changed, fac:   F   F   0.49726776E+00
(PID.TID 0000.0001)  exf_GetFFieldsRec:      count0, count1:   1   2
(PID.TID 0000.0001) 
(PID.TID 0000.0001) 
(PID.TID 0000.0001)  exf_GetFFieldsRec: first, changed, fac:   F   F   0.49726776E+00
(PID.TID 0000.0001)  exf_GetFFieldsRec:      count0, count1:   1   2
(PID.TID 0000.0001) 
(PID.TID 0000.0001) 
(PID.TID 0000.0001)  exf_GetFFieldsRec: first, changed, fac:   F   F   0.49726776E+00
(PID.TID 0000.0001)  exf_GetFFieldsRec:      count0, count1:   1   2
(PID.TID 0000.0001) 
(PID.TID 0000.0001)  MDSREADFIELD: opening file: xx_atemp.0000000000.001.001.data
(PID.TID 0000.0001)  MDSREADFIELD: opening file: xx_atemp.0000000000.001.001.data
(PID.TID 0000.0001)  MDSREADFIELD: opening file: xx_aqh.0000000000.001.001.data
(PID.TID 0000.0001)  MDSREADFIELD: opening file: xx_aqh.0000000000.001.001.data
(PID.TID 0000.0001) 
(PID.TID 0000.0001)  exf_GetFFieldsRec: first, changed, fac:   F   F   0.49726776E+00
(PID.TID 0000.0001)  exf_GetFFieldsRec:      count0, count1:   1   2
(PID.TID 0000.0001) 
(PID.TID 0000.0001) 
(PID.TID 0000.0001)  exf_GetFFieldsRec: first, changed, fac:   F   F   0.49726776E+00
(PID.TID 0000.0001)  exf_GetFFieldsRec:      count0, count1:   1   2
(PID.TID 0000.0001) 
 cg2d: Sum(rhs),rhsMax =   6.20553955443803E-15  1.25438452343302E+00
(PID.TID 0000.0001)                    cg2d_init_res =    2.36078257971889E-01
(PID.TID 0000.0001)                       cg2d_iters =    45
(PID.TID 0000.0001)                         cg2d_res =    6.62546240702124E-14
(PID.TID 0000.0001) 
(PID.TID 0000.0001)  exf_GetFFieldsRec: first, changed, fac:   F   F   0.49590164E+00
(PID.TID 0000.0001)  exf_GetFFieldsRec:      count0, count1:   1   2
(PID.TID 0000.0001) 
(PID.TID 0000.0001) 
(PID.TID 0000.0001)  exf_GetFFieldsRec: first, changed, fac:   F   F   0.49590164E+00
(PID.TID 0000.0001)  exf_GetFFieldsRec:      count0, count1:   1   2
(PID.TID 0000.0001) 
(PID.TID 0000.0001)  MDSREADFIELD: opening file: xx_uwind.0000000000.001.001.data
(PID.TID 0000.0001)  MDSREADFIELD: opening file: xx_uwind.0000000000.001.001.data
(PID.TID 0000.0001)  MDSREADFIELD: opening file: xx_vwind.0000000000.001.001.data
(PID.TID 0000.0001)  MDSREADFIELD: opening file: xx_vwind.0000000000.001.001.data
(PID.TID 0000.0001) 
(PID.TID 0000.0001)  exf_GetFFieldsRec: first, changed, fac:   F   F   0.49590164E+00
(PID.TID 0000.0001)  exf_GetFFieldsRec:      count0, count1:   1   2
(PID.TID 0000.0001) 
(PID.TID 0000.0001) 
(PID.TID 0000.0001)  exf_GetFFieldsRec: first, changed, fac:   F   F   0.49590164E+00
(PID.TID 0000.0001)  exf_GetFFieldsRec:      count0, count1:   1   2
(PID.TID 0000.0001) 
(PID.TID 0000.0001) 
(PID.TID 0000.0001)  exf_GetFFieldsRec: first, changed, fac:   F   F   0.49590164E+00
(PID.TID 0000.0001)  exf_GetFFieldsRec:      count0, count1:   1   2
(PID.TID 0000.0001) 
(PID.TID 0000.0001)  MDSREADFIELD: opening file: xx_atemp.0000000000.001.001.data
(PID.TID 0000.0001)  MDSREADFIELD: opening file: xx_atemp.0000000000.001.001.data
(PID.TID 0000.0001)  MDSREADFIELD: opening file: xx_aqh.0000000000.001.001.data
(PID.TID 0000.0001)  MDSREADFIELD: opening file: xx_aqh.0000000000.001.001.data
(PID.TID 0000.0001) 
(PID.TID 0000.0001)  exf_GetFFieldsRec: first, changed, fac:   F   F   0.49590164E+00
(PID.TID 0000.0001)  exf_GetFFieldsRec:      count0, count1:   1   2
(PID.TID 0000.0001) 
(PID.TID 0000.0001) 
(PID.TID 0000.0001)  exf_GetFFieldsRec: first, changed, fac:   F   F   0.49590164E+00
(PID.TID 0000.0001)  exf_GetFFieldsRec:      count0, count1:   1   2
(PID.TID 0000.0001) 
 cg2d: Sum(rhs),rhsMax =   3.20620266447413E-15  1.25494322187447E+00
(PID.TID 0000.0001)                    cg2d_init_res =    1.82553144014713E-01
(PID.TID 0000.0001)                       cg2d_iters =    45
(PID.TID 0000.0001)                         cg2d_res =    5.12415163303431E-14
(PID.TID 0000.0001)  MDSREADVECTOR: opening file: tapelev2_1_the_main_loop_gsnm1.it0000.001.001.data
(PID.TID 0000.0001)  MDS_READ_RL_VEC: irec =  00000001   00015456
(PID.TID 0000.0001)  MDSREADVECTOR: opening file: tapelev2_2_the_main_loop_gtnm1.it0000.001.001.data
(PID.TID 0000.0001)  MDS_READ_RL_VEC: irec =  00000001   00015456
(PID.TID 0000.0001)  MDSREADVECTOR: opening file: tapelev2_3_the_main_loop_gunm1.it0000.001.001.data
(PID.TID 0000.0001)  MDS_READ_RL_VEC: irec =  00000001   00015456
(PID.TID 0000.0001)  MDSREADVECTOR: opening file: tapelev2_4_the_main_loop_gvnm1.it0000.001.001.data
(PID.TID 0000.0001)  MDS_READ_RL_VEC: irec =  00000001   00015456
(PID.TID 0000.0001)  MDSREADVECTOR: opening file: tapelev2_5_the_main_loop_theta.it0000.001.001.data
(PID.TID 0000.0001)  MDS_READ_RL_VEC: irec =  00000001   00015456
(PID.TID 0000.0001)  MDSREADVECTOR: opening file: tapelev2_6_the_main_loop_salt.it0000.001.001.data
(PID.TID 0000.0001)  MDS_READ_RL_VEC: irec =  00000001   00015456
(PID.TID 0000.0001)  MDSREADVECTOR: opening file: tapelev2_7_the_main_loop_uvel.it0000.001.001.data
(PID.TID 0000.0001)  MDS_READ_RL_VEC: irec =  00000001   00015456
(PID.TID 0000.0001)  MDSREADVECTOR: opening file: tapelev2_8_the_main_loop_vvel.it0000.001.001.data
(PID.TID 0000.0001)  MDS_READ_RL_VEC: irec =  00000001   00015456
(PID.TID 0000.0001)  MDSREADVECTOR: opening file: tapelev2_9_the_main_loop_wvel.it0000.001.001.data
(PID.TID 0000.0001)  MDS_READ_RL_VEC: irec =  00000001   00015456
(PID.TID 0000.0001)  MDSREADVECTOR: opening file: tapelev2_10_the_main_loop_etan.it0000.001.001.data
(PID.TID 0000.0001)  MDS_READ_RL_VEC: irec =  00000001   00000672
(PID.TID 0000.0001)  MDSREADVECTOR: opening file: tapelev2_11_the_main_loop_gu.it0000.001.001.data
(PID.TID 0000.0001)  MDS_READ_RL_VEC: irec =  00000001   00015456
(PID.TID 0000.0001)  MDSREADVECTOR: opening file: tapelev2_12_the_main_loop_gv.it0000.001.001.data
(PID.TID 0000.0001)  MDS_READ_RL_VEC: irec =  00000001   00015456
(PID.TID 0000.0001)  MDSREADVECTOR: opening file: tapelev2_13_the_main_loop_uveld.it0000.001.001.data
(PID.TID 0000.0001)  MDS_READ_RL_VEC: irec =  00000001   00015456
(PID.TID 0000.0001)  MDSREADVECTOR: opening file: tapelev2_14_the_main_loop_vveld.it0000.001.001.data
(PID.TID 0000.0001)  MDS_READ_RL_VEC: irec =  00000001   00015456
(PID.TID 0000.0001)  MDSREADVECTOR: opening file: tapelev2_15_the_main_loop_etanm1.it0000.001.001.data
(PID.TID 0000.0001)  MDS_READ_RL_VEC: irec =  00000001   00000672
(PID.TID 0000.0001)  MDSREADVECTOR: opening file: tapelev2_16_the_main_loop_unm1.it0000.001.001.data
(PID.TID 0000.0001)  MDS_READ_RL_VEC: irec =  00000001   00015456
(PID.TID 0000.0001)  MDSREADVECTOR: opening file: tapelev2_17_the_main_loop_vnm1.it0000.001.001.data
(PID.TID 0000.0001)  MDS_READ_RL_VEC: irec =  00000001   00015456
(PID.TID 0000.0001)  MDSREADVECTOR: opening file: tapelev2_18_the_main_loop_gucd.it0000.001.001.data
(PID.TID 0000.0001)  MDS_READ_RL_VEC: irec =  00000001   00015456
(PID.TID 0000.0001)  MDSREADVECTOR: opening file: tapelev2_19_the_main_loop_gvcd.it0000.001.001.data
(PID.TID 0000.0001)  MDS_READ_RL_VEC: irec =  00000001   00015456
(PID.TID 0000.0001)  MDSREADVECTOR: opening file: tapelev2_20_the_main_loop_etah.it0000.001.001.data
(PID.TID 0000.0001)  MDS_READ_RL_VEC: irec =  00000001   00000672
(PID.TID 0000.0001)  MDSREADVECTOR: opening file: tapelev2_21_the_main_loop_hdivflow.it0000.001.001.data
(PID.TID 0000.0001)  MDS_READ_RL_VEC: irec =  00000001   00000672
(PID.TID 0000.0001)  MDSREADVECTOR: opening file: tapelev2_22_the_main_loop_aqh0.it0000.001.001.data
(PID.TID 0000.0001)  MDS_READ_RL_VEC: irec =  00000001   00000672
(PID.TID 0000.0001)  MDSREADVECTOR: opening file: tapelev2_23_the_main_loop_aqh1.it0000.001.001.data
(PID.TID 0000.0001)  MDS_READ_RL_VEC: irec =  00000001   00000672
(PID.TID 0000.0001)  MDSREADVECTOR: opening file: tapelev2_24_the_main_loop_atemp0.it0000.001.001.data
(PID.TID 0000.0001)  MDS_READ_RL_VEC: irec =  00000001   00000672
(PID.TID 0000.0001)  MDSREADVECTOR: opening file: tapelev2_25_the_main_loop_atemp1.it0000.001.001.data
(PID.TID 0000.0001)  MDS_READ_RL_VEC: irec =  00000001   00000672
(PID.TID 0000.0001)  MDSREADVECTOR: opening file: tapelev2_26_the_main_loop_precip0.it0000.001.001.data
(PID.TID 0000.0001)  MDS_READ_RL_VEC: irec =  00000001   00000672
(PID.TID 0000.0001)  MDSREADVECTOR: opening file: tapelev2_27_the_main_loop_precip1.it0000.001.001.data
(PID.TID 0000.0001)  MDS_READ_RL_VEC: irec =  00000001   00000672
(PID.TID 0000.0001)  MDSREADVECTOR: opening file: tapelev2_28_the_main_loop_lwflux0.it0000.001.001.data
(PID.TID 0000.0001)  MDS_READ_RL_VEC: irec =  00000001   00000672
(PID.TID 0000.0001)  MDSREADVECTOR: opening file: tapelev2_29_the_main_loop_lwflux1.it0000.001.001.data
(PID.TID 0000.0001)  MDS_READ_RL_VEC: irec =  00000001   00000672
(PID.TID 0000.0001)  MDSREADVECTOR: opening file: tapelev2_30_the_main_loop_swflux0.it0000.001.001.data
(PID.TID 0000.0001)  MDS_READ_RL_VEC: irec =  00000001   00000672
(PID.TID 0000.0001)  MDSREADVECTOR: opening file: tapelev2_31_the_main_loop_swflux1.it0000.001.001.data
(PID.TID 0000.0001)  MDS_READ_RL_VEC: irec =  00000001   00000672
(PID.TID 0000.0001)  MDSREADVECTOR: opening file: tapelev2_32_the_main_loop_evap.it0000.001.001.data
(PID.TID 0000.0001)  MDS_READ_RL_VEC: irec =  00000001   00000672
(PID.TID 0000.0001)  MDSREADVECTOR: opening file: tapelev2_33_the_main_loop_uwind0.it0000.001.001.data
(PID.TID 0000.0001)  MDS_READ_RL_VEC: irec =  00000001   00000672
(PID.TID 0000.0001)  MDSREADVECTOR: opening file: tapelev2_34_the_main_loop_uwind1.it0000.001.001.data
(PID.TID 0000.0001)  MDS_READ_RL_VEC: irec =  00000001   00000672
(PID.TID 0000.0001)  MDSREADVECTOR: opening file: tapelev2_35_the_main_loop_vwind0.it0000.001.001.data
(PID.TID 0000.0001)  MDS_READ_RL_VEC: irec =  00000001   00000672
(PID.TID 0000.0001)  MDSREADVECTOR: opening file: tapelev2_36_the_main_loop_vwind1.it0000.001.001.data
(PID.TID 0000.0001)  MDS_READ_RL_VEC: irec =  00000001   00000672
(PID.TID 0000.0001) 
(PID.TID 0000.0001)  exf_GetFFieldsRec: first, changed, fac:   T   F   0.50000000E+00
(PID.TID 0000.0001)  exf_GetFFieldsRec:      count0, count1:   1   2
(PID.TID 0000.0001) 
(PID.TID 0000.0001)  MDSREADFIELD: opening global file: u10m.labsea79
(PID.TID 0000.0001)  MDSREADFIELD: opening global file: u10m.labsea79
(PID.TID 0000.0001) 
(PID.TID 0000.0001)  exf_GetFFieldsRec: first, changed, fac:   T   F   0.50000000E+00
(PID.TID 0000.0001)  exf_GetFFieldsRec:      count0, count1:   1   2
(PID.TID 0000.0001) 
(PID.TID 0000.0001)  MDSREADFIELD: opening global file: v10m.labsea79
(PID.TID 0000.0001)  MDSREADFIELD: opening global file: v10m.labsea79
(PID.TID 0000.0001)  MDSREADFIELD: opening file: xx_uwind.0000000000.001.001.data
(PID.TID 0000.0001)  MDSREADFIELD: opening file: xx_uwind.0000000000.001.001.data
(PID.TID 0000.0001)  MDSREADFIELD: opening file: xx_vwind.0000000000.001.001.data
(PID.TID 0000.0001)  MDSREADFIELD: opening file: xx_vwind.0000000000.001.001.data
(PID.TID 0000.0001) 
(PID.TID 0000.0001)  exf_GetFFieldsRec: first, changed, fac:   T   F   0.50000000E+00
(PID.TID 0000.0001)  exf_GetFFieldsRec:      count0, count1:   1   2
(PID.TID 0000.0001) 
(PID.TID 0000.0001)  MDSREADFIELD: opening global file: tair.labsea1979
(PID.TID 0000.0001)  MDSREADFIELD: opening global file: tair.labsea1979
(PID.TID 0000.0001) 
(PID.TID 0000.0001)  exf_GetFFieldsRec: first, changed, fac:   T   F   0.50000000E+00
(PID.TID 0000.0001)  exf_GetFFieldsRec:      count0, count1:   1   2
(PID.TID 0000.0001) 
(PID.TID 0000.0001)  MDSREADFIELD: opening global file: qa.labsea1979
(PID.TID 0000.0001)  MDSREADFIELD: opening global file: qa.labsea1979
(PID.TID 0000.0001) 
(PID.TID 0000.0001)  exf_GetFFieldsRec: first, changed, fac:   T   F   0.50000000E+00
(PID.TID 0000.0001)  exf_GetFFieldsRec:      count0, count1:   1   2
(PID.TID 0000.0001) 
(PID.TID 0000.0001)  MDSREADFIELD: opening global file: prate.labsea1979
(PID.TID 0000.0001)  MDSREADFIELD: opening global file: prate.labsea1979
(PID.TID 0000.0001)  MDSREADFIELD: opening file: xx_atemp.0000000000.001.001.data
(PID.TID 0000.0001)  MDSREADFIELD: opening file: xx_atemp.0000000000.001.001.data
(PID.TID 0000.0001)  MDSREADFIELD: opening file: xx_aqh.0000000000.001.001.data
(PID.TID 0000.0001)  MDSREADFIELD: opening file: xx_aqh.0000000000.001.001.data
(PID.TID 0000.0001) 
(PID.TID 0000.0001)  exf_GetFFieldsRec: first, changed, fac:   T   F   0.50000000E+00
(PID.TID 0000.0001)  exf_GetFFieldsRec:      count0, count1:   1   2
(PID.TID 0000.0001) 
(PID.TID 0000.0001)  MDSREADFIELD: opening global file: fsh.labsea1979
(PID.TID 0000.0001)  MDSREADFIELD: opening global file: fsh.labsea1979
(PID.TID 0000.0001) 
(PID.TID 0000.0001)  exf_GetFFieldsRec: first, changed, fac:   T   F   0.50000000E+00
(PID.TID 0000.0001)  exf_GetFFieldsRec:      count0, count1:   1   2
(PID.TID 0000.0001) 
(PID.TID 0000.0001)  MDSREADFIELD: opening global file: flo.labsea1979
(PID.TID 0000.0001)  MDSREADFIELD: opening global file: flo.labsea1979
 cg2d: Sum(rhs),rhsMax =   1.95590071916385E-16  1.00807802167630E+00
(PID.TID 0000.0001)                    cg2d_init_res =    1.61521300655486E+00
(PID.TID 0000.0001)                       cg2d_iters =    47
(PID.TID 0000.0001)                         cg2d_res =    5.70138941994743E-14
(PID.TID 0000.0001) 
(PID.TID 0000.0001)  exf_GetFFieldsRec: first, changed, fac:   F   F   0.49863388E+00
(PID.TID 0000.0001)  exf_GetFFieldsRec:      count0, count1:   1   2
(PID.TID 0000.0001) 
(PID.TID 0000.0001) 
(PID.TID 0000.0001)  exf_GetFFieldsRec: first, changed, fac:   F   F   0.49863388E+00
(PID.TID 0000.0001)  exf_GetFFieldsRec:      count0, count1:   1   2
(PID.TID 0000.0001) 
(PID.TID 0000.0001)  MDSREADFIELD: opening file: xx_uwind.0000000000.001.001.data
(PID.TID 0000.0001)  MDSREADFIELD: opening file: xx_uwind.0000000000.001.001.data
(PID.TID 0000.0001)  MDSREADFIELD: opening file: xx_vwind.0000000000.001.001.data
(PID.TID 0000.0001)  MDSREADFIELD: opening file: xx_vwind.0000000000.001.001.data
(PID.TID 0000.0001) 
(PID.TID 0000.0001)  exf_GetFFieldsRec: first, changed, fac:   F   F   0.49863388E+00
(PID.TID 0000.0001)  exf_GetFFieldsRec:      count0, count1:   1   2
(PID.TID 0000.0001) 
(PID.TID 0000.0001) 
(PID.TID 0000.0001)  exf_GetFFieldsRec: first, changed, fac:   F   F   0.49863388E+00
(PID.TID 0000.0001)  exf_GetFFieldsRec:      count0, count1:   1   2
(PID.TID 0000.0001) 
(PID.TID 0000.0001) 
(PID.TID 0000.0001)  exf_GetFFieldsRec: first, changed, fac:   F   F   0.49863388E+00
(PID.TID 0000.0001)  exf_GetFFieldsRec:      count0, count1:   1   2
(PID.TID 0000.0001) 
(PID.TID 0000.0001)  MDSREADFIELD: opening file: xx_atemp.0000000000.001.001.data
(PID.TID 0000.0001)  MDSREADFIELD: opening file: xx_atemp.0000000000.001.001.data
(PID.TID 0000.0001)  MDSREADFIELD: opening file: xx_aqh.0000000000.001.001.data
(PID.TID 0000.0001)  MDSREADFIELD: opening file: xx_aqh.0000000000.001.001.data
(PID.TID 0000.0001) 
(PID.TID 0000.0001)  exf_GetFFieldsRec: first, changed, fac:   F   F   0.49863388E+00
(PID.TID 0000.0001)  exf_GetFFieldsRec:      count0, count1:   1   2
(PID.TID 0000.0001) 
(PID.TID 0000.0001) 
(PID.TID 0000.0001)  exf_GetFFieldsRec: first, changed, fac:   F   F   0.49863388E+00
(PID.TID 0000.0001)  exf_GetFFieldsRec:      count0, count1:   1   2
(PID.TID 0000.0001) 
 cg2d: Sum(rhs),rhsMax =   7.37474317724640E-16  1.23585471329616E+00
(PID.TID 0000.0001)                    cg2d_init_res =    3.48544561450945E-01
(PID.TID 0000.0001)                       cg2d_iters =    45
(PID.TID 0000.0001)                         cg2d_res =    6.49477568692734E-14
(PID.TID 0000.0001) 
(PID.TID 0000.0001)  exf_GetFFieldsRec: first, changed, fac:   F   F   0.49726776E+00
(PID.TID 0000.0001)  exf_GetFFieldsRec:      count0, count1:   1   2
(PID.TID 0000.0001) 
(PID.TID 0000.0001) 
(PID.TID 0000.0001)  exf_GetFFieldsRec: first, changed, fac:   F   F   0.49726776E+00
(PID.TID 0000.0001)  exf_GetFFieldsRec:      count0, count1:   1   2
(PID.TID 0000.0001) 
(PID.TID 0000.0001)  MDSREADFIELD: opening file: xx_uwind.0000000000.001.001.data
(PID.TID 0000.0001)  MDSREADFIELD: opening file: xx_uwind.0000000000.001.001.data
(PID.TID 0000.0001)  MDSREADFIELD: opening file: xx_vwind.0000000000.001.001.data
(PID.TID 0000.0001)  MDSREADFIELD: opening file: xx_vwind.0000000000.001.001.data
(PID.TID 0000.0001) 
(PID.TID 0000.0001)  exf_GetFFieldsRec: first, changed, fac:   F   F   0.49726776E+00
(PID.TID 0000.0001)  exf_GetFFieldsRec:      count0, count1:   1   2
(PID.TID 0000.0001) 
(PID.TID 0000.0001) 
(PID.TID 0000.0001)  exf_GetFFieldsRec: first, changed, fac:   F   F   0.49726776E+00
(PID.TID 0000.0001)  exf_GetFFieldsRec:      count0, count1:   1   2
(PID.TID 0000.0001) 
(PID.TID 0000.0001) 
(PID.TID 0000.0001)  exf_GetFFieldsRec: first, changed, fac:   F   F   0.49726776E+00
(PID.TID 0000.0001)  exf_GetFFieldsRec:      count0, count1:   1   2
(PID.TID 0000.0001) 
(PID.TID 0000.0001)  MDSREADFIELD: opening file: xx_atemp.0000000000.001.001.data
(PID.TID 0000.0001)  MDSREADFIELD: opening file: xx_atemp.0000000000.001.001.data
(PID.TID 0000.0001)  MDSREADFIELD: opening file: xx_aqh.0000000000.001.001.data
(PID.TID 0000.0001)  MDSREADFIELD: opening file: xx_aqh.0000000000.001.001.data
(PID.TID 0000.0001) 
(PID.TID 0000.0001)  exf_GetFFieldsRec: first, changed, fac:   F   F   0.49726776E+00
(PID.TID 0000.0001)  exf_GetFFieldsRec:      count0, count1:   1   2
(PID.TID 0000.0001) 
(PID.TID 0000.0001) 
(PID.TID 0000.0001)  exf_GetFFieldsRec: first, changed, fac:   F   F   0.49726776E+00
(PID.TID 0000.0001)  exf_GetFFieldsRec:      count0, count1:   1   2
(PID.TID 0000.0001) 
 cg2d: Sum(rhs),rhsMax =   6.20553955443803E-15  1.25438452343302E+00
(PID.TID 0000.0001)                    cg2d_init_res =    2.36078257971889E-01
(PID.TID 0000.0001)                       cg2d_iters =    45
(PID.TID 0000.0001)                         cg2d_res =    6.62546240702124E-14
(PID.TID 0000.0001) 
(PID.TID 0000.0001)  exf_GetFFieldsRec: first, changed, fac:   F   F   0.49590164E+00
(PID.TID 0000.0001)  exf_GetFFieldsRec:      count0, count1:   1   2
(PID.TID 0000.0001) 
(PID.TID 0000.0001) 
(PID.TID 0000.0001)  exf_GetFFieldsRec: first, changed, fac:   F   F   0.49590164E+00
(PID.TID 0000.0001)  exf_GetFFieldsRec:      count0, count1:   1   2
(PID.TID 0000.0001) 
(PID.TID 0000.0001)  MDSREADFIELD: opening file: xx_uwind.0000000000.001.001.data
(PID.TID 0000.0001)  MDSREADFIELD: opening file: xx_uwind.0000000000.001.001.data
(PID.TID 0000.0001)  MDSREADFIELD: opening file: xx_vwind.0000000000.001.001.data
(PID.TID 0000.0001)  MDSREADFIELD: opening file: xx_vwind.0000000000.001.001.data
(PID.TID 0000.0001) 
(PID.TID 0000.0001)  exf_GetFFieldsRec: first, changed, fac:   F   F   0.49590164E+00
(PID.TID 0000.0001)  exf_GetFFieldsRec:      count0, count1:   1   2
(PID.TID 0000.0001) 
(PID.TID 0000.0001) 
(PID.TID 0000.0001)  exf_GetFFieldsRec: first, changed, fac:   F   F   0.49590164E+00
(PID.TID 0000.0001)  exf_GetFFieldsRec:      count0, count1:   1   2
(PID.TID 0000.0001) 
(PID.TID 0000.0001) 
(PID.TID 0000.0001)  exf_GetFFieldsRec: first, changed, fac:   F   F   0.49590164E+00
(PID.TID 0000.0001)  exf_GetFFieldsRec:      count0, count1:   1   2
(PID.TID 0000.0001) 
(PID.TID 0000.0001)  MDSREADFIELD: opening file: xx_atemp.0000000000.001.001.data
(PID.TID 0000.0001)  MDSREADFIELD: opening file: xx_atemp.0000000000.001.001.data
(PID.TID 0000.0001)  MDSREADFIELD: opening file: xx_aqh.0000000000.001.001.data
(PID.TID 0000.0001)  MDSREADFIELD: opening file: xx_aqh.0000000000.001.001.data
(PID.TID 0000.0001) 
(PID.TID 0000.0001)  exf_GetFFieldsRec: first, changed, fac:   F   F   0.49590164E+00
(PID.TID 0000.0001)  exf_GetFFieldsRec:      count0, count1:   1   2
(PID.TID 0000.0001) 
(PID.TID 0000.0001) 
(PID.TID 0000.0001)  exf_GetFFieldsRec: first, changed, fac:   F   F   0.49590164E+00
(PID.TID 0000.0001)  exf_GetFFieldsRec:      count0, count1:   1   2
(PID.TID 0000.0001) 
 cg2d: Sum(rhs),rhsMax =   3.20620266447413E-15  1.25494322187447E+00
(PID.TID 0000.0001)                    cg2d_init_res =    1.82553144014713E-01
(PID.TID 0000.0001)                       cg2d_iters =    45
(PID.TID 0000.0001)                         cg2d_res =    5.12415163303431E-14
(PID.TID 0000.0001)  MDSREADVECTOR: opening file: tapelev2_1_the_main_loop_gsnm1.it0000.001.001.data
(PID.TID 0000.0001)  MDS_READ_RL_VEC: irec =  00000001   00015456
(PID.TID 0000.0001)  MDSREADVECTOR: opening file: tapelev2_2_the_main_loop_gtnm1.it0000.001.001.data
(PID.TID 0000.0001)  MDS_READ_RL_VEC: irec =  00000001   00015456
(PID.TID 0000.0001)  MDSREADVECTOR: opening file: tapelev2_3_the_main_loop_gunm1.it0000.001.001.data
(PID.TID 0000.0001)  MDS_READ_RL_VEC: irec =  00000001   00015456
(PID.TID 0000.0001)  MDSREADVECTOR: opening file: tapelev2_4_the_main_loop_gvnm1.it0000.001.001.data
(PID.TID 0000.0001)  MDS_READ_RL_VEC: irec =  00000001   00015456
(PID.TID 0000.0001)  MDSREADVECTOR: opening file: tapelev2_5_the_main_loop_theta.it0000.001.001.data
(PID.TID 0000.0001)  MDS_READ_RL_VEC: irec =  00000001   00015456
(PID.TID 0000.0001)  MDSREADVECTOR: opening file: tapelev2_6_the_main_loop_salt.it0000.001.001.data
(PID.TID 0000.0001)  MDS_READ_RL_VEC: irec =  00000001   00015456
(PID.TID 0000.0001)  MDSREADVECTOR: opening file: tapelev2_7_the_main_loop_uvel.it0000.001.001.data
(PID.TID 0000.0001)  MDS_READ_RL_VEC: irec =  00000001   00015456
(PID.TID 0000.0001)  MDSREADVECTOR: opening file: tapelev2_8_the_main_loop_vvel.it0000.001.001.data
(PID.TID 0000.0001)  MDS_READ_RL_VEC: irec =  00000001   00015456
(PID.TID 0000.0001)  MDSREADVECTOR: opening file: tapelev2_9_the_main_loop_wvel.it0000.001.001.data
(PID.TID 0000.0001)  MDS_READ_RL_VEC: irec =  00000001   00015456
(PID.TID 0000.0001)  MDSREADVECTOR: opening file: tapelev2_10_the_main_loop_etan.it0000.001.001.data
(PID.TID 0000.0001)  MDS_READ_RL_VEC: irec =  00000001   00000672
(PID.TID 0000.0001)  MDSREADVECTOR: opening file: tapelev2_11_the_main_loop_gu.it0000.001.001.data
(PID.TID 0000.0001)  MDS_READ_RL_VEC: irec =  00000001   00015456
(PID.TID 0000.0001)  MDSREADVECTOR: opening file: tapelev2_12_the_main_loop_gv.it0000.001.001.data
(PID.TID 0000.0001)  MDS_READ_RL_VEC: irec =  00000001   00015456
(PID.TID 0000.0001)  MDSREADVECTOR: opening file: tapelev2_13_the_main_loop_uveld.it0000.001.001.data
(PID.TID 0000.0001)  MDS_READ_RL_VEC: irec =  00000001   00015456
(PID.TID 0000.0001)  MDSREADVECTOR: opening file: tapelev2_14_the_main_loop_vveld.it0000.001.001.data
(PID.TID 0000.0001)  MDS_READ_RL_VEC: irec =  00000001   00015456
(PID.TID 0000.0001)  MDSREADVECTOR: opening file: tapelev2_15_the_main_loop_etanm1.it0000.001.001.data
(PID.TID 0000.0001)  MDS_READ_RL_VEC: irec =  00000001   00000672
(PID.TID 0000.0001)  MDSREADVECTOR: opening file: tapelev2_16_the_main_loop_unm1.it0000.001.001.data
(PID.TID 0000.0001)  MDS_READ_RL_VEC: irec =  00000001   00015456
(PID.TID 0000.0001)  MDSREADVECTOR: opening file: tapelev2_17_the_main_loop_vnm1.it0000.001.001.data
(PID.TID 0000.0001)  MDS_READ_RL_VEC: irec =  00000001   00015456
(PID.TID 0000.0001)  MDSREADVECTOR: opening file: tapelev2_18_the_main_loop_gucd.it0000.001.001.data
(PID.TID 0000.0001)  MDS_READ_RL_VEC: irec =  00000001   00015456
(PID.TID 0000.0001)  MDSREADVECTOR: opening file: tapelev2_19_the_main_loop_gvcd.it0000.001.001.data
(PID.TID 0000.0001)  MDS_READ_RL_VEC: irec =  00000001   00015456
(PID.TID 0000.0001)  MDSREADVECTOR: opening file: tapelev2_20_the_main_loop_etah.it0000.001.001.data
(PID.TID 0000.0001)  MDS_READ_RL_VEC: irec =  00000001   00000672
(PID.TID 0000.0001)  MDSREADVECTOR: opening file: tapelev2_21_the_main_loop_hdivflow.it0000.001.001.data
(PID.TID 0000.0001)  MDS_READ_RL_VEC: irec =  00000001   00000672
(PID.TID 0000.0001)  MDSREADVECTOR: opening file: tapelev2_22_the_main_loop_aqh0.it0000.001.001.data
(PID.TID 0000.0001)  MDS_READ_RL_VEC: irec =  00000001   00000672
(PID.TID 0000.0001)  MDSREADVECTOR: opening file: tapelev2_23_the_main_loop_aqh1.it0000.001.001.data
(PID.TID 0000.0001)  MDS_READ_RL_VEC: irec =  00000001   00000672
(PID.TID 0000.0001)  MDSREADVECTOR: opening file: tapelev2_24_the_main_loop_atemp0.it0000.001.001.data
(PID.TID 0000.0001)  MDS_READ_RL_VEC: irec =  00000001   00000672
(PID.TID 0000.0001)  MDSREADVECTOR: opening file: tapelev2_25_the_main_loop_atemp1.it0000.001.001.data
(PID.TID 0000.0001)  MDS_READ_RL_VEC: irec =  00000001   00000672
(PID.TID 0000.0001)  MDSREADVECTOR: opening file: tapelev2_26_the_main_loop_precip0.it0000.001.001.data
(PID.TID 0000.0001)  MDS_READ_RL_VEC: irec =  00000001   00000672
(PID.TID 0000.0001)  MDSREADVECTOR: opening file: tapelev2_27_the_main_loop_precip1.it0000.001.001.data
(PID.TID 0000.0001)  MDS_READ_RL_VEC: irec =  00000001   00000672
(PID.TID 0000.0001)  MDSREADVECTOR: opening file: tapelev2_28_the_main_loop_lwflux0.it0000.001.001.data
(PID.TID 0000.0001)  MDS_READ_RL_VEC: irec =  00000001   00000672
(PID.TID 0000.0001)  MDSREADVECTOR: opening file: tapelev2_29_the_main_loop_lwflux1.it0000.001.001.data
(PID.TID 0000.0001)  MDS_READ_RL_VEC: irec =  00000001   00000672
(PID.TID 0000.0001)  MDSREADVECTOR: opening file: tapelev2_30_the_main_loop_swflux0.it0000.001.001.data
(PID.TID 0000.0001)  MDS_READ_RL_VEC: irec =  00000001   00000672
(PID.TID 0000.0001)  MDSREADVECTOR: opening file: tapelev2_31_the_main_loop_swflux1.it0000.001.001.data
(PID.TID 0000.0001)  MDS_READ_RL_VEC: irec =  00000001   00000672
(PID.TID 0000.0001)  MDSREADVECTOR: opening file: tapelev2_32_the_main_loop_evap.it0000.001.001.data
(PID.TID 0000.0001)  MDS_READ_RL_VEC: irec =  00000001   00000672
(PID.TID 0000.0001)  MDSREADVECTOR: opening file: tapelev2_33_the_main_loop_uwind0.it0000.001.001.data
(PID.TID 0000.0001)  MDS_READ_RL_VEC: irec =  00000001   00000672
(PID.TID 0000.0001)  MDSREADVECTOR: opening file: tapelev2_34_the_main_loop_uwind1.it0000.001.001.data
(PID.TID 0000.0001)  MDS_READ_RL_VEC: irec =  00000001   00000672
(PID.TID 0000.0001)  MDSREADVECTOR: opening file: tapelev2_35_the_main_loop_vwind0.it0000.001.001.data
(PID.TID 0000.0001)  MDS_READ_RL_VEC: irec =  00000001   00000672
(PID.TID 0000.0001)  MDSREADVECTOR: opening file: tapelev2_36_the_main_loop_vwind1.it0000.001.001.data
(PID.TID 0000.0001)  MDS_READ_RL_VEC: irec =  00000001   00000672
(PID.TID 0000.0001) 
(PID.TID 0000.0001)  exf_GetFFieldsRec: first, changed, fac:   T   F   0.50000000E+00
(PID.TID 0000.0001)  exf_GetFFieldsRec:      count0, count1:   1   2
(PID.TID 0000.0001) 
(PID.TID 0000.0001)  MDSREADFIELD: opening global file: u10m.labsea79
(PID.TID 0000.0001)  MDSREADFIELD: opening global file: u10m.labsea79
(PID.TID 0000.0001) 
(PID.TID 0000.0001)  exf_GetFFieldsRec: first, changed, fac:   T   F   0.50000000E+00
(PID.TID 0000.0001)  exf_GetFFieldsRec:      count0, count1:   1   2
(PID.TID 0000.0001) 
(PID.TID 0000.0001)  MDSREADFIELD: opening global file: v10m.labsea79
(PID.TID 0000.0001)  MDSREADFIELD: opening global file: v10m.labsea79
(PID.TID 0000.0001)  MDSREADFIELD: opening file: xx_uwind.0000000000.001.001.data
(PID.TID 0000.0001)  MDSREADFIELD: opening file: xx_uwind.0000000000.001.001.data
(PID.TID 0000.0001)  MDSREADFIELD: opening file: xx_vwind.0000000000.001.001.data
(PID.TID 0000.0001)  MDSREADFIELD: opening file: xx_vwind.0000000000.001.001.data
(PID.TID 0000.0001) 
(PID.TID 0000.0001)  exf_GetFFieldsRec: first, changed, fac:   T   F   0.50000000E+00
(PID.TID 0000.0001)  exf_GetFFieldsRec:      count0, count1:   1   2
(PID.TID 0000.0001) 
(PID.TID 0000.0001)  MDSREADFIELD: opening global file: tair.labsea1979
(PID.TID 0000.0001)  MDSREADFIELD: opening global file: tair.labsea1979
(PID.TID 0000.0001) 
(PID.TID 0000.0001)  exf_GetFFieldsRec: first, changed, fac:   T   F   0.50000000E+00
(PID.TID 0000.0001)  exf_GetFFieldsRec:      count0, count1:   1   2
(PID.TID 0000.0001) 
(PID.TID 0000.0001)  MDSREADFIELD: opening global file: qa.labsea1979
(PID.TID 0000.0001)  MDSREADFIELD: opening global file: qa.labsea1979
(PID.TID 0000.0001) 
(PID.TID 0000.0001)  exf_GetFFieldsRec: first, changed, fac:   T   F   0.50000000E+00
(PID.TID 0000.0001)  exf_GetFFieldsRec:      count0, count1:   1   2
(PID.TID 0000.0001) 
(PID.TID 0000.0001)  MDSREADFIELD: opening global file: prate.labsea1979
(PID.TID 0000.0001)  MDSREADFIELD: opening global file: prate.labsea1979
(PID.TID 0000.0001)  MDSREADFIELD: opening file: xx_atemp.0000000000.001.001.data
(PID.TID 0000.0001)  MDSREADFIELD: opening file: xx_atemp.0000000000.001.001.data
(PID.TID 0000.0001)  MDSREADFIELD: opening file: xx_aqh.0000000000.001.001.data
(PID.TID 0000.0001)  MDSREADFIELD: opening file: xx_aqh.0000000000.001.001.data
(PID.TID 0000.0001) 
(PID.TID 0000.0001)  exf_GetFFieldsRec: first, changed, fac:   T   F   0.50000000E+00
(PID.TID 0000.0001)  exf_GetFFieldsRec:      count0, count1:   1   2
(PID.TID 0000.0001) 
(PID.TID 0000.0001)  MDSREADFIELD: opening global file: fsh.labsea1979
(PID.TID 0000.0001)  MDSREADFIELD: opening global file: fsh.labsea1979
(PID.TID 0000.0001) 
(PID.TID 0000.0001)  exf_GetFFieldsRec: first, changed, fac:   T   F   0.50000000E+00
(PID.TID 0000.0001)  exf_GetFFieldsRec:      count0, count1:   1   2
(PID.TID 0000.0001) 
(PID.TID 0000.0001)  MDSREADFIELD: opening global file: flo.labsea1979
(PID.TID 0000.0001)  MDSREADFIELD: opening global file: flo.labsea1979
 cg2d: Sum(rhs),rhsMax =   1.95590071916385E-16  1.00807802167630E+00
(PID.TID 0000.0001)                    cg2d_init_res =    1.61521300655486E+00
(PID.TID 0000.0001)                       cg2d_iters =    47
(PID.TID 0000.0001)                         cg2d_res =    5.70138941994743E-14
(PID.TID 0000.0001) 
(PID.TID 0000.0001)  exf_GetFFieldsRec: first, changed, fac:   F   F   0.49863388E+00
(PID.TID 0000.0001)  exf_GetFFieldsRec:      count0, count1:   1   2
(PID.TID 0000.0001) 
(PID.TID 0000.0001) 
(PID.TID 0000.0001)  exf_GetFFieldsRec: first, changed, fac:   F   F   0.49863388E+00
(PID.TID 0000.0001)  exf_GetFFieldsRec:      count0, count1:   1   2
(PID.TID 0000.0001) 
(PID.TID 0000.0001)  MDSREADFIELD: opening file: xx_uwind.0000000000.001.001.data
(PID.TID 0000.0001)  MDSREADFIELD: opening file: xx_uwind.0000000000.001.001.data
(PID.TID 0000.0001)  MDSREADFIELD: opening file: xx_vwind.0000000000.001.001.data
(PID.TID 0000.0001)  MDSREADFIELD: opening file: xx_vwind.0000000000.001.001.data
(PID.TID 0000.0001) 
(PID.TID 0000.0001)  exf_GetFFieldsRec: first, changed, fac:   F   F   0.49863388E+00
(PID.TID 0000.0001)  exf_GetFFieldsRec:      count0, count1:   1   2
(PID.TID 0000.0001) 
(PID.TID 0000.0001) 
(PID.TID 0000.0001)  exf_GetFFieldsRec: first, changed, fac:   F   F   0.49863388E+00
(PID.TID 0000.0001)  exf_GetFFieldsRec:      count0, count1:   1   2
(PID.TID 0000.0001) 
(PID.TID 0000.0001) 
(PID.TID 0000.0001)  exf_GetFFieldsRec: first, changed, fac:   F   F   0.49863388E+00
(PID.TID 0000.0001)  exf_GetFFieldsRec:      count0, count1:   1   2
(PID.TID 0000.0001) 
(PID.TID 0000.0001)  MDSREADFIELD: opening file: xx_atemp.0000000000.001.001.data
(PID.TID 0000.0001)  MDSREADFIELD: opening file: xx_atemp.0000000000.001.001.data
(PID.TID 0000.0001)  MDSREADFIELD: opening file: xx_aqh.0000000000.001.001.data
(PID.TID 0000.0001)  MDSREADFIELD: opening file: xx_aqh.0000000000.001.001.data
(PID.TID 0000.0001) 
(PID.TID 0000.0001)  exf_GetFFieldsRec: first, changed, fac:   F   F   0.49863388E+00
(PID.TID 0000.0001)  exf_GetFFieldsRec:      count0, count1:   1   2
(PID.TID 0000.0001) 
(PID.TID 0000.0001) 
(PID.TID 0000.0001)  exf_GetFFieldsRec: first, changed, fac:   F   F   0.49863388E+00
(PID.TID 0000.0001)  exf_GetFFieldsRec:      count0, count1:   1   2
(PID.TID 0000.0001) 
 cg2d: Sum(rhs),rhsMax =   7.37474317724640E-16  1.23585471329616E+00
(PID.TID 0000.0001)                    cg2d_init_res =    3.48544561450945E-01
(PID.TID 0000.0001)                       cg2d_iters =    45
(PID.TID 0000.0001)                         cg2d_res =    6.49477568692734E-14
(PID.TID 0000.0001) 
(PID.TID 0000.0001)  exf_GetFFieldsRec: first, changed, fac:   F   F   0.49726776E+00
(PID.TID 0000.0001)  exf_GetFFieldsRec:      count0, count1:   1   2
(PID.TID 0000.0001) 
(PID.TID 0000.0001) 
(PID.TID 0000.0001)  exf_GetFFieldsRec: first, changed, fac:   F   F   0.49726776E+00
(PID.TID 0000.0001)  exf_GetFFieldsRec:      count0, count1:   1   2
(PID.TID 0000.0001) 
(PID.TID 0000.0001)  MDSREADFIELD: opening file: xx_uwind.0000000000.001.001.data
(PID.TID 0000.0001)  MDSREADFIELD: opening file: xx_uwind.0000000000.001.001.data
(PID.TID 0000.0001)  MDSREADFIELD: opening file: xx_vwind.0000000000.001.001.data
(PID.TID 0000.0001)  MDSREADFIELD: opening file: xx_vwind.0000000000.001.001.data
(PID.TID 0000.0001) 
(PID.TID 0000.0001)  exf_GetFFieldsRec: first, changed, fac:   F   F   0.49726776E+00
(PID.TID 0000.0001)  exf_GetFFieldsRec:      count0, count1:   1   2
(PID.TID 0000.0001) 
(PID.TID 0000.0001) 
(PID.TID 0000.0001)  exf_GetFFieldsRec: first, changed, fac:   F   F   0.49726776E+00
(PID.TID 0000.0001)  exf_GetFFieldsRec:      count0, count1:   1   2
(PID.TID 0000.0001) 
(PID.TID 0000.0001) 
(PID.TID 0000.0001)  exf_GetFFieldsRec: first, changed, fac:   F   F   0.49726776E+00
(PID.TID 0000.0001)  exf_GetFFieldsRec:      count0, count1:   1   2
(PID.TID 0000.0001) 
(PID.TID 0000.0001)  MDSREADFIELD: opening file: xx_atemp.0000000000.001.001.data
(PID.TID 0000.0001)  MDSREADFIELD: opening file: xx_atemp.0000000000.001.001.data
(PID.TID 0000.0001)  MDSREADFIELD: opening file: xx_aqh.0000000000.001.001.data
(PID.TID 0000.0001)  MDSREADFIELD: opening file: xx_aqh.0000000000.001.001.data
(PID.TID 0000.0001) 
(PID.TID 0000.0001)  exf_GetFFieldsRec: first, changed, fac:   F   F   0.49726776E+00
(PID.TID 0000.0001)  exf_GetFFieldsRec:      count0, count1:   1   2
(PID.TID 0000.0001) 
(PID.TID 0000.0001) 
(PID.TID 0000.0001)  exf_GetFFieldsRec: first, changed, fac:   F   F   0.49726776E+00
(PID.TID 0000.0001)  exf_GetFFieldsRec:      count0, count1:   1   2
(PID.TID 0000.0001) 
 cg2d: Sum(rhs),rhsMax =   6.20553955443803E-15  1.25438452343302E+00
(PID.TID 0000.0001)                    cg2d_init_res =    2.36078257971889E-01
(PID.TID 0000.0001)                       cg2d_iters =    45
(PID.TID 0000.0001)                         cg2d_res =    6.62546240702124E-14
(PID.TID 0000.0001) 
(PID.TID 0000.0001)  exf_GetFFieldsRec: first, changed, fac:   F   F   0.49590164E+00
(PID.TID 0000.0001)  exf_GetFFieldsRec:      count0, count1:   1   2
(PID.TID 0000.0001) 
(PID.TID 0000.0001) 
(PID.TID 0000.0001)  exf_GetFFieldsRec: first, changed, fac:   F   F   0.49590164E+00
(PID.TID 0000.0001)  exf_GetFFieldsRec:      count0, count1:   1   2
(PID.TID 0000.0001) 
(PID.TID 0000.0001)  MDSREADFIELD: opening file: xx_uwind.0000000000.001.001.data
(PID.TID 0000.0001)  MDSREADFIELD: opening file: xx_uwind.0000000000.001.001.data
(PID.TID 0000.0001)  MDSREADFIELD: opening file: xx_vwind.0000000000.001.001.data
(PID.TID 0000.0001)  MDSREADFIELD: opening file: xx_vwind.0000000000.001.001.data
(PID.TID 0000.0001) 
(PID.TID 0000.0001)  exf_GetFFieldsRec: first, changed, fac:   F   F   0.49590164E+00
(PID.TID 0000.0001)  exf_GetFFieldsRec:      count0, count1:   1   2
(PID.TID 0000.0001) 
(PID.TID 0000.0001) 
(PID.TID 0000.0001)  exf_GetFFieldsRec: first, changed, fac:   F   F   0.49590164E+00
(PID.TID 0000.0001)  exf_GetFFieldsRec:      count0, count1:   1   2
(PID.TID 0000.0001) 
(PID.TID 0000.0001) 
(PID.TID 0000.0001)  exf_GetFFieldsRec: first, changed, fac:   F   F   0.49590164E+00
(PID.TID 0000.0001)  exf_GetFFieldsRec:      count0, count1:   1   2
(PID.TID 0000.0001) 
(PID.TID 0000.0001)  MDSREADFIELD: opening file: xx_atemp.0000000000.001.001.data
(PID.TID 0000.0001)  MDSREADFIELD: opening file: xx_atemp.0000000000.001.001.data
(PID.TID 0000.0001)  MDSREADFIELD: opening file: xx_aqh.0000000000.001.001.data
(PID.TID 0000.0001)  MDSREADFIELD: opening file: xx_aqh.0000000000.001.001.data
(PID.TID 0000.0001) 
(PID.TID 0000.0001)  exf_GetFFieldsRec: first, changed, fac:   F   F   0.49590164E+00
(PID.TID 0000.0001)  exf_GetFFieldsRec:      count0, count1:   1   2
(PID.TID 0000.0001) 
(PID.TID 0000.0001) 
(PID.TID 0000.0001)  exf_GetFFieldsRec: first, changed, fac:   F   F   0.49590164E+00
(PID.TID 0000.0001)  exf_GetFFieldsRec:      count0, count1:   1   2
(PID.TID 0000.0001) 
 cg2d: Sum(rhs),rhsMax =   3.20620266447413E-15  1.25494322187447E+00
(PID.TID 0000.0001)                    cg2d_init_res =    1.82553144014713E-01
(PID.TID 0000.0001)                       cg2d_iters =    45
(PID.TID 0000.0001)                         cg2d_res =    5.12415163303431E-14
(PID.TID 0000.0001)  MDSREADVECTOR: opening file: tapelev2_1_the_main_loop_gsnm1.it0000.001.001.data
(PID.TID 0000.0001)  MDS_READ_RL_VEC: irec =  00000001   00015456
(PID.TID 0000.0001)  MDSREADVECTOR: opening file: tapelev2_2_the_main_loop_gtnm1.it0000.001.001.data
(PID.TID 0000.0001)  MDS_READ_RL_VEC: irec =  00000001   00015456
(PID.TID 0000.0001)  MDSREADVECTOR: opening file: tapelev2_3_the_main_loop_gunm1.it0000.001.001.data
(PID.TID 0000.0001)  MDS_READ_RL_VEC: irec =  00000001   00015456
(PID.TID 0000.0001)  MDSREADVECTOR: opening file: tapelev2_4_the_main_loop_gvnm1.it0000.001.001.data
(PID.TID 0000.0001)  MDS_READ_RL_VEC: irec =  00000001   00015456
(PID.TID 0000.0001)  MDSREADVECTOR: opening file: tapelev2_5_the_main_loop_theta.it0000.001.001.data
(PID.TID 0000.0001)  MDS_READ_RL_VEC: irec =  00000001   00015456
(PID.TID 0000.0001)  MDSREADVECTOR: opening file: tapelev2_6_the_main_loop_salt.it0000.001.001.data
(PID.TID 0000.0001)  MDS_READ_RL_VEC: irec =  00000001   00015456
(PID.TID 0000.0001)  MDSREADVECTOR: opening file: tapelev2_7_the_main_loop_uvel.it0000.001.001.data
(PID.TID 0000.0001)  MDS_READ_RL_VEC: irec =  00000001   00015456
(PID.TID 0000.0001)  MDSREADVECTOR: opening file: tapelev2_8_the_main_loop_vvel.it0000.001.001.data
(PID.TID 0000.0001)  MDS_READ_RL_VEC: irec =  00000001   00015456
(PID.TID 0000.0001)  MDSREADVECTOR: opening file: tapelev2_9_the_main_loop_wvel.it0000.001.001.data
(PID.TID 0000.0001)  MDS_READ_RL_VEC: irec =  00000001   00015456
(PID.TID 0000.0001)  MDSREADVECTOR: opening file: tapelev2_10_the_main_loop_etan.it0000.001.001.data
(PID.TID 0000.0001)  MDS_READ_RL_VEC: irec =  00000001   00000672
(PID.TID 0000.0001)  MDSREADVECTOR: opening file: tapelev2_11_the_main_loop_gu.it0000.001.001.data
(PID.TID 0000.0001)  MDS_READ_RL_VEC: irec =  00000001   00015456
(PID.TID 0000.0001)  MDSREADVECTOR: opening file: tapelev2_12_the_main_loop_gv.it0000.001.001.data
(PID.TID 0000.0001)  MDS_READ_RL_VEC: irec =  00000001   00015456
(PID.TID 0000.0001)  MDSREADVECTOR: opening file: tapelev2_13_the_main_loop_uveld.it0000.001.001.data
(PID.TID 0000.0001)  MDS_READ_RL_VEC: irec =  00000001   00015456
(PID.TID 0000.0001)  MDSREADVECTOR: opening file: tapelev2_14_the_main_loop_vveld.it0000.001.001.data
(PID.TID 0000.0001)  MDS_READ_RL_VEC: irec =  00000001   00015456
(PID.TID 0000.0001)  MDSREADVECTOR: opening file: tapelev2_15_the_main_loop_etanm1.it0000.001.001.data
(PID.TID 0000.0001)  MDS_READ_RL_VEC: irec =  00000001   00000672
(PID.TID 0000.0001)  MDSREADVECTOR: opening file: tapelev2_16_the_main_loop_unm1.it0000.001.001.data
(PID.TID 0000.0001)  MDS_READ_RL_VEC: irec =  00000001   00015456
(PID.TID 0000.0001)  MDSREADVECTOR: opening file: tapelev2_17_the_main_loop_vnm1.it0000.001.001.data
(PID.TID 0000.0001)  MDS_READ_RL_VEC: irec =  00000001   00015456
(PID.TID 0000.0001)  MDSREADVECTOR: opening file: tapelev2_18_the_main_loop_gucd.it0000.001.001.data
(PID.TID 0000.0001)  MDS_READ_RL_VEC: irec =  00000001   00015456
(PID.TID 0000.0001)  MDSREADVECTOR: opening file: tapelev2_19_the_main_loop_gvcd.it0000.001.001.data
(PID.TID 0000.0001)  MDS_READ_RL_VEC: irec =  00000001   00015456
(PID.TID 0000.0001)  MDSREADVECTOR: opening file: tapelev2_20_the_main_loop_etah.it0000.001.001.data
(PID.TID 0000.0001)  MDS_READ_RL_VEC: irec =  00000001   00000672
(PID.TID 0000.0001)  MDSREADVECTOR: opening file: tapelev2_21_the_main_loop_hdivflow.it0000.001.001.data
(PID.TID 0000.0001)  MDS_READ_RL_VEC: irec =  00000001   00000672
(PID.TID 0000.0001)  MDSREADVECTOR: opening file: tapelev2_22_the_main_loop_aqh0.it0000.001.001.data
(PID.TID 0000.0001)  MDS_READ_RL_VEC: irec =  00000001   00000672
(PID.TID 0000.0001)  MDSREADVECTOR: opening file: tapelev2_23_the_main_loop_aqh1.it0000.001.001.data
(PID.TID 0000.0001)  MDS_READ_RL_VEC: irec =  00000001   00000672
(PID.TID 0000.0001)  MDSREADVECTOR: opening file: tapelev2_24_the_main_loop_atemp0.it0000.001.001.data
(PID.TID 0000.0001)  MDS_READ_RL_VEC: irec =  00000001   00000672
(PID.TID 0000.0001)  MDSREADVECTOR: opening file: tapelev2_25_the_main_loop_atemp1.it0000.001.001.data
(PID.TID 0000.0001)  MDS_READ_RL_VEC: irec =  00000001   00000672
(PID.TID 0000.0001)  MDSREADVECTOR: opening file: tapelev2_26_the_main_loop_precip0.it0000.001.001.data
(PID.TID 0000.0001)  MDS_READ_RL_VEC: irec =  00000001   00000672
(PID.TID 0000.0001)  MDSREADVECTOR: opening file: tapelev2_27_the_main_loop_precip1.it0000.001.001.data
(PID.TID 0000.0001)  MDS_READ_RL_VEC: irec =  00000001   00000672
(PID.TID 0000.0001)  MDSREADVECTOR: opening file: tapelev2_28_the_main_loop_lwflux0.it0000.001.001.data
(PID.TID 0000.0001)  MDS_READ_RL_VEC: irec =  00000001   00000672
(PID.TID 0000.0001)  MDSREADVECTOR: opening file: tapelev2_29_the_main_loop_lwflux1.it0000.001.001.data
(PID.TID 0000.0001)  MDS_READ_RL_VEC: irec =  00000001   00000672
(PID.TID 0000.0001)  MDSREADVECTOR: opening file: tapelev2_30_the_main_loop_swflux0.it0000.001.001.data
(PID.TID 0000.0001)  MDS_READ_RL_VEC: irec =  00000001   00000672
(PID.TID 0000.0001)  MDSREADVECTOR: opening file: tapelev2_31_the_main_loop_swflux1.it0000.001.001.data
(PID.TID 0000.0001)  MDS_READ_RL_VEC: irec =  00000001   00000672
(PID.TID 0000.0001)  MDSREADVECTOR: opening file: tapelev2_32_the_main_loop_evap.it0000.001.001.data
(PID.TID 0000.0001)  MDS_READ_RL_VEC: irec =  00000001   00000672
(PID.TID 0000.0001)  MDSREADVECTOR: opening file: tapelev2_33_the_main_loop_uwind0.it0000.001.001.data
(PID.TID 0000.0001)  MDS_READ_RL_VEC: irec =  00000001   00000672
(PID.TID 0000.0001)  MDSREADVECTOR: opening file: tapelev2_34_the_main_loop_uwind1.it0000.001.001.data
(PID.TID 0000.0001)  MDS_READ_RL_VEC: irec =  00000001   00000672
(PID.TID 0000.0001)  MDSREADVECTOR: opening file: tapelev2_35_the_main_loop_vwind0.it0000.001.001.data
(PID.TID 0000.0001)  MDS_READ_RL_VEC: irec =  00000001   00000672
(PID.TID 0000.0001)  MDSREADVECTOR: opening file: tapelev2_36_the_main_loop_vwind1.it0000.001.001.data
(PID.TID 0000.0001)  MDS_READ_RL_VEC: irec =  00000001   00000672
(PID.TID 0000.0001) 
(PID.TID 0000.0001)  exf_GetFFieldsRec: first, changed, fac:   T   F   0.50000000E+00
(PID.TID 0000.0001)  exf_GetFFieldsRec:      count0, count1:   1   2
(PID.TID 0000.0001) 
(PID.TID 0000.0001)  MDSREADFIELD: opening global file: u10m.labsea79
(PID.TID 0000.0001)  MDSREADFIELD: opening global file: u10m.labsea79
(PID.TID 0000.0001) 
(PID.TID 0000.0001)  exf_GetFFieldsRec: first, changed, fac:   T   F   0.50000000E+00
(PID.TID 0000.0001)  exf_GetFFieldsRec:      count0, count1:   1   2
(PID.TID 0000.0001) 
(PID.TID 0000.0001)  MDSREADFIELD: opening global file: v10m.labsea79
(PID.TID 0000.0001)  MDSREADFIELD: opening global file: v10m.labsea79
(PID.TID 0000.0001)  MDSREADFIELD: opening file: xx_uwind.0000000000.001.001.data
(PID.TID 0000.0001)  MDSREADFIELD: opening file: xx_uwind.0000000000.001.001.data
(PID.TID 0000.0001)  MDSREADFIELD: opening file: xx_vwind.0000000000.001.001.data
(PID.TID 0000.0001)  MDSREADFIELD: opening file: xx_vwind.0000000000.001.001.data
(PID.TID 0000.0001) 
(PID.TID 0000.0001)  exf_GetFFieldsRec: first, changed, fac:   T   F   0.50000000E+00
(PID.TID 0000.0001)  exf_GetFFieldsRec:      count0, count1:   1   2
(PID.TID 0000.0001) 
(PID.TID 0000.0001)  MDSREADFIELD: opening global file: tair.labsea1979
(PID.TID 0000.0001)  MDSREADFIELD: opening global file: tair.labsea1979
(PID.TID 0000.0001) 
(PID.TID 0000.0001)  exf_GetFFieldsRec: first, changed, fac:   T   F   0.50000000E+00
(PID.TID 0000.0001)  exf_GetFFieldsRec:      count0, count1:   1   2
(PID.TID 0000.0001) 
(PID.TID 0000.0001)  MDSREADFIELD: opening global file: qa.labsea1979
(PID.TID 0000.0001)  MDSREADFIELD: opening global file: qa.labsea1979
(PID.TID 0000.0001) 
(PID.TID 0000.0001)  exf_GetFFieldsRec: first, changed, fac:   T   F   0.50000000E+00
(PID.TID 0000.0001)  exf_GetFFieldsRec:      count0, count1:   1   2
(PID.TID 0000.0001) 
(PID.TID 0000.0001)  MDSREADFIELD: opening global file: prate.labsea1979
(PID.TID 0000.0001)  MDSREADFIELD: opening global file: prate.labsea1979
(PID.TID 0000.0001)  MDSREADFIELD: opening file: xx_atemp.0000000000.001.001.data
(PID.TID 0000.0001)  MDSREADFIELD: opening file: xx_atemp.0000000000.001.001.data
(PID.TID 0000.0001)  MDSREADFIELD: opening file: xx_aqh.0000000000.001.001.data
(PID.TID 0000.0001)  MDSREADFIELD: opening file: xx_aqh.0000000000.001.001.data
(PID.TID 0000.0001) 
(PID.TID 0000.0001)  exf_GetFFieldsRec: first, changed, fac:   T   F   0.50000000E+00
(PID.TID 0000.0001)  exf_GetFFieldsRec:      count0, count1:   1   2
(PID.TID 0000.0001) 
(PID.TID 0000.0001)  MDSREADFIELD: opening global file: fsh.labsea1979
(PID.TID 0000.0001)  MDSREADFIELD: opening global file: fsh.labsea1979
(PID.TID 0000.0001) 
(PID.TID 0000.0001)  exf_GetFFieldsRec: first, changed, fac:   T   F   0.50000000E+00
(PID.TID 0000.0001)  exf_GetFFieldsRec:      count0, count1:   1   2
(PID.TID 0000.0001) 
(PID.TID 0000.0001)  MDSREADFIELD: opening global file: flo.labsea1979
(PID.TID 0000.0001)  MDSREADFIELD: opening global file: flo.labsea1979
 cg2d: Sum(rhs),rhsMax =   1.95590071916385E-16  1.00807802167630E+00
(PID.TID 0000.0001)                    cg2d_init_res =    1.61521300655486E+00
(PID.TID 0000.0001)                       cg2d_iters =    47
(PID.TID 0000.0001)                         cg2d_res =    5.70138941994743E-14
(PID.TID 0000.0001) 
(PID.TID 0000.0001)  exf_GetFFieldsRec: first, changed, fac:   F   F   0.49863388E+00
(PID.TID 0000.0001)  exf_GetFFieldsRec:      count0, count1:   1   2
(PID.TID 0000.0001) 
(PID.TID 0000.0001) 
(PID.TID 0000.0001)  exf_GetFFieldsRec: first, changed, fac:   F   F   0.49863388E+00
(PID.TID 0000.0001)  exf_GetFFieldsRec:      count0, count1:   1   2
(PID.TID 0000.0001) 
(PID.TID 0000.0001)  MDSREADFIELD: opening file: xx_uwind.0000000000.001.001.data
(PID.TID 0000.0001)  MDSREADFIELD: opening file: xx_uwind.0000000000.001.001.data
(PID.TID 0000.0001)  MDSREADFIELD: opening file: xx_vwind.0000000000.001.001.data
(PID.TID 0000.0001)  MDSREADFIELD: opening file: xx_vwind.0000000000.001.001.data
(PID.TID 0000.0001) 
(PID.TID 0000.0001)  exf_GetFFieldsRec: first, changed, fac:   F   F   0.49863388E+00
(PID.TID 0000.0001)  exf_GetFFieldsRec:      count0, count1:   1   2
(PID.TID 0000.0001) 
(PID.TID 0000.0001) 
(PID.TID 0000.0001)  exf_GetFFieldsRec: first, changed, fac:   F   F   0.49863388E+00
(PID.TID 0000.0001)  exf_GetFFieldsRec:      count0, count1:   1   2
(PID.TID 0000.0001) 
(PID.TID 0000.0001) 
(PID.TID 0000.0001)  exf_GetFFieldsRec: first, changed, fac:   F   F   0.49863388E+00
(PID.TID 0000.0001)  exf_GetFFieldsRec:      count0, count1:   1   2
(PID.TID 0000.0001) 
(PID.TID 0000.0001)  MDSREADFIELD: opening file: xx_atemp.0000000000.001.001.data
(PID.TID 0000.0001)  MDSREADFIELD: opening file: xx_atemp.0000000000.001.001.data
(PID.TID 0000.0001)  MDSREADFIELD: opening file: xx_aqh.0000000000.001.001.data
(PID.TID 0000.0001)  MDSREADFIELD: opening file: xx_aqh.0000000000.001.001.data
(PID.TID 0000.0001) 
(PID.TID 0000.0001)  exf_GetFFieldsRec: first, changed, fac:   F   F   0.49863388E+00
(PID.TID 0000.0001)  exf_GetFFieldsRec:      count0, count1:   1   2
(PID.TID 0000.0001) 
(PID.TID 0000.0001) 
(PID.TID 0000.0001)  exf_GetFFieldsRec: first, changed, fac:   F   F   0.49863388E+00
(PID.TID 0000.0001)  exf_GetFFieldsRec:      count0, count1:   1   2
(PID.TID 0000.0001) 
 cg2d: Sum(rhs),rhsMax =   7.37474317724640E-16  1.23585471329616E+00
(PID.TID 0000.0001)                    cg2d_init_res =    3.48544561450945E-01
(PID.TID 0000.0001)                       cg2d_iters =    45
(PID.TID 0000.0001)                         cg2d_res =    6.49477568692734E-14
(PID.TID 0000.0001) 
(PID.TID 0000.0001)  exf_GetFFieldsRec: first, changed, fac:   F   F   0.49726776E+00
(PID.TID 0000.0001)  exf_GetFFieldsRec:      count0, count1:   1   2
(PID.TID 0000.0001) 
(PID.TID 0000.0001) 
(PID.TID 0000.0001)  exf_GetFFieldsRec: first, changed, fac:   F   F   0.49726776E+00
(PID.TID 0000.0001)  exf_GetFFieldsRec:      count0, count1:   1   2
(PID.TID 0000.0001) 
(PID.TID 0000.0001)  MDSREADFIELD: opening file: xx_uwind.0000000000.001.001.data
(PID.TID 0000.0001)  MDSREADFIELD: opening file: xx_uwind.0000000000.001.001.data
(PID.TID 0000.0001)  MDSREADFIELD: opening file: xx_vwind.0000000000.001.001.data
(PID.TID 0000.0001)  MDSREADFIELD: opening file: xx_vwind.0000000000.001.001.data
(PID.TID 0000.0001) 
(PID.TID 0000.0001)  exf_GetFFieldsRec: first, changed, fac:   F   F   0.49726776E+00
(PID.TID 0000.0001)  exf_GetFFieldsRec:      count0, count1:   1   2
(PID.TID 0000.0001) 
(PID.TID 0000.0001) 
(PID.TID 0000.0001)  exf_GetFFieldsRec: first, changed, fac:   F   F   0.49726776E+00
(PID.TID 0000.0001)  exf_GetFFieldsRec:      count0, count1:   1   2
(PID.TID 0000.0001) 
(PID.TID 0000.0001) 
(PID.TID 0000.0001)  exf_GetFFieldsRec: first, changed, fac:   F   F   0.49726776E+00
(PID.TID 0000.0001)  exf_GetFFieldsRec:      count0, count1:   1   2
(PID.TID 0000.0001) 
(PID.TID 0000.0001)  MDSREADFIELD: opening file: xx_atemp.0000000000.001.001.data
(PID.TID 0000.0001)  MDSREADFIELD: opening file: xx_atemp.0000000000.001.001.data
(PID.TID 0000.0001)  MDSREADFIELD: opening file: xx_aqh.0000000000.001.001.data
(PID.TID 0000.0001)  MDSREADFIELD: opening file: xx_aqh.0000000000.001.001.data
(PID.TID 0000.0001) 
(PID.TID 0000.0001)  exf_GetFFieldsRec: first, changed, fac:   F   F   0.49726776E+00
(PID.TID 0000.0001)  exf_GetFFieldsRec:      count0, count1:   1   2
(PID.TID 0000.0001) 
(PID.TID 0000.0001) 
(PID.TID 0000.0001)  exf_GetFFieldsRec: first, changed, fac:   F   F   0.49726776E+00
(PID.TID 0000.0001)  exf_GetFFieldsRec:      count0, count1:   1   2
(PID.TID 0000.0001) 
 cg2d: Sum(rhs),rhsMax =   6.20553955443803E-15  1.25438452343302E+00
(PID.TID 0000.0001)                    cg2d_init_res =    2.36078257971889E-01
(PID.TID 0000.0001)                       cg2d_iters =    45
(PID.TID 0000.0001)                         cg2d_res =    6.62546240702124E-14
(PID.TID 0000.0001) 
(PID.TID 0000.0001)  exf_GetFFieldsRec: first, changed, fac:   F   F   0.49590164E+00
(PID.TID 0000.0001)  exf_GetFFieldsRec:      count0, count1:   1   2
(PID.TID 0000.0001) 
(PID.TID 0000.0001) 
(PID.TID 0000.0001)  exf_GetFFieldsRec: first, changed, fac:   F   F   0.49590164E+00
(PID.TID 0000.0001)  exf_GetFFieldsRec:      count0, count1:   1   2
(PID.TID 0000.0001) 
(PID.TID 0000.0001)  MDSREADFIELD: opening file: xx_uwind.0000000000.001.001.data
(PID.TID 0000.0001)  MDSREADFIELD: opening file: xx_uwind.0000000000.001.001.data
(PID.TID 0000.0001)  MDSREADFIELD: opening file: xx_vwind.0000000000.001.001.data
(PID.TID 0000.0001)  MDSREADFIELD: opening file: xx_vwind.0000000000.001.001.data
(PID.TID 0000.0001) 
(PID.TID 0000.0001)  exf_GetFFieldsRec: first, changed, fac:   F   F   0.49590164E+00
(PID.TID 0000.0001)  exf_GetFFieldsRec:      count0, count1:   1   2
(PID.TID 0000.0001) 
(PID.TID 0000.0001) 
(PID.TID 0000.0001)  exf_GetFFieldsRec: first, changed, fac:   F   F   0.49590164E+00
(PID.TID 0000.0001)  exf_GetFFieldsRec:      count0, count1:   1   2
(PID.TID 0000.0001) 
(PID.TID 0000.0001) 
(PID.TID 0000.0001)  exf_GetFFieldsRec: first, changed, fac:   F   F   0.49590164E+00
(PID.TID 0000.0001)  exf_GetFFieldsRec:      count0, count1:   1   2
(PID.TID 0000.0001) 
(PID.TID 0000.0001)  MDSREADFIELD: opening file: xx_atemp.0000000000.001.001.data
(PID.TID 0000.0001)  MDSREADFIELD: opening file: xx_atemp.0000000000.001.001.data
(PID.TID 0000.0001)  MDSREADFIELD: opening file: xx_aqh.0000000000.001.001.data
(PID.TID 0000.0001)  MDSREADFIELD: opening file: xx_aqh.0000000000.001.001.data
(PID.TID 0000.0001) 
(PID.TID 0000.0001)  exf_GetFFieldsRec: first, changed, fac:   F   F   0.49590164E+00
(PID.TID 0000.0001)  exf_GetFFieldsRec:      count0, count1:   1   2
(PID.TID 0000.0001) 
(PID.TID 0000.0001) 
(PID.TID 0000.0001)  exf_GetFFieldsRec: first, changed, fac:   F   F   0.49590164E+00
(PID.TID 0000.0001)  exf_GetFFieldsRec:      count0, count1:   1   2
(PID.TID 0000.0001) 
 cg2d: Sum(rhs),rhsMax =   3.20620266447413E-15  1.25494322187447E+00
(PID.TID 0000.0001)                    cg2d_init_res =    1.82553144014713E-01
(PID.TID 0000.0001)                       cg2d_iters =    45
(PID.TID 0000.0001)                         cg2d_res =    5.12415163303431E-14
(PID.TID 0000.0001)  MDSREADVECTOR: opening file: tapelev2_1_the_main_loop_gsnm1.it0000.001.001.data
(PID.TID 0000.0001)  MDS_READ_RL_VEC: irec =  00000001   00015456
(PID.TID 0000.0001)  MDSREADVECTOR: opening file: tapelev2_2_the_main_loop_gtnm1.it0000.001.001.data
(PID.TID 0000.0001)  MDS_READ_RL_VEC: irec =  00000001   00015456
(PID.TID 0000.0001)  MDSREADVECTOR: opening file: tapelev2_3_the_main_loop_gunm1.it0000.001.001.data
(PID.TID 0000.0001)  MDS_READ_RL_VEC: irec =  00000001   00015456
(PID.TID 0000.0001)  MDSREADVECTOR: opening file: tapelev2_4_the_main_loop_gvnm1.it0000.001.001.data
(PID.TID 0000.0001)  MDS_READ_RL_VEC: irec =  00000001   00015456
(PID.TID 0000.0001)  MDSREADVECTOR: opening file: tapelev2_5_the_main_loop_theta.it0000.001.001.data
(PID.TID 0000.0001)  MDS_READ_RL_VEC: irec =  00000001   00015456
(PID.TID 0000.0001)  MDSREADVECTOR: opening file: tapelev2_6_the_main_loop_salt.it0000.001.001.data
(PID.TID 0000.0001)  MDS_READ_RL_VEC: irec =  00000001   00015456
(PID.TID 0000.0001)  MDSREADVECTOR: opening file: tapelev2_7_the_main_loop_uvel.it0000.001.001.data
(PID.TID 0000.0001)  MDS_READ_RL_VEC: irec =  00000001   00015456
(PID.TID 0000.0001)  MDSREADVECTOR: opening file: tapelev2_8_the_main_loop_vvel.it0000.001.001.data
(PID.TID 0000.0001)  MDS_READ_RL_VEC: irec =  00000001   00015456
(PID.TID 0000.0001)  MDSREADVECTOR: opening file: tapelev2_9_the_main_loop_wvel.it0000.001.001.data
(PID.TID 0000.0001)  MDS_READ_RL_VEC: irec =  00000001   00015456
(PID.TID 0000.0001)  MDSREADVECTOR: opening file: tapelev2_10_the_main_loop_etan.it0000.001.001.data
(PID.TID 0000.0001)  MDS_READ_RL_VEC: irec =  00000001   00000672
(PID.TID 0000.0001)  MDSREADVECTOR: opening file: tapelev2_11_the_main_loop_gu.it0000.001.001.data
(PID.TID 0000.0001)  MDS_READ_RL_VEC: irec =  00000001   00015456
(PID.TID 0000.0001)  MDSREADVECTOR: opening file: tapelev2_12_the_main_loop_gv.it0000.001.001.data
(PID.TID 0000.0001)  MDS_READ_RL_VEC: irec =  00000001   00015456
(PID.TID 0000.0001)  MDSREADVECTOR: opening file: tapelev2_13_the_main_loop_uveld.it0000.001.001.data
(PID.TID 0000.0001)  MDS_READ_RL_VEC: irec =  00000001   00015456
(PID.TID 0000.0001)  MDSREADVECTOR: opening file: tapelev2_14_the_main_loop_vveld.it0000.001.001.data
(PID.TID 0000.0001)  MDS_READ_RL_VEC: irec =  00000001   00015456
(PID.TID 0000.0001)  MDSREADVECTOR: opening file: tapelev2_15_the_main_loop_etanm1.it0000.001.001.data
(PID.TID 0000.0001)  MDS_READ_RL_VEC: irec =  00000001   00000672
(PID.TID 0000.0001)  MDSREADVECTOR: opening file: tapelev2_16_the_main_loop_unm1.it0000.001.001.data
(PID.TID 0000.0001)  MDS_READ_RL_VEC: irec =  00000001   00015456
(PID.TID 0000.0001)  MDSREADVECTOR: opening file: tapelev2_17_the_main_loop_vnm1.it0000.001.001.data
(PID.TID 0000.0001)  MDS_READ_RL_VEC: irec =  00000001   00015456
(PID.TID 0000.0001)  MDSREADVECTOR: opening file: tapelev2_18_the_main_loop_gucd.it0000.001.001.data
(PID.TID 0000.0001)  MDS_READ_RL_VEC: irec =  00000001   00015456
(PID.TID 0000.0001)  MDSREADVECTOR: opening file: tapelev2_19_the_main_loop_gvcd.it0000.001.001.data
(PID.TID 0000.0001)  MDS_READ_RL_VEC: irec =  00000001   00015456
(PID.TID 0000.0001)  MDSREADVECTOR: opening file: tapelev2_20_the_main_loop_etah.it0000.001.001.data
(PID.TID 0000.0001)  MDS_READ_RL_VEC: irec =  00000001   00000672
(PID.TID 0000.0001)  MDSREADVECTOR: opening file: tapelev2_21_the_main_loop_hdivflow.it0000.001.001.data
(PID.TID 0000.0001)  MDS_READ_RL_VEC: irec =  00000001   00000672
(PID.TID 0000.0001)  MDSREADVECTOR: opening file: tapelev2_22_the_main_loop_aqh0.it0000.001.001.data
(PID.TID 0000.0001)  MDS_READ_RL_VEC: irec =  00000001   00000672
(PID.TID 0000.0001)  MDSREADVECTOR: opening file: tapelev2_23_the_main_loop_aqh1.it0000.001.001.data
(PID.TID 0000.0001)  MDS_READ_RL_VEC: irec =  00000001   00000672
(PID.TID 0000.0001)  MDSREADVECTOR: opening file: tapelev2_24_the_main_loop_atemp0.it0000.001.001.data
(PID.TID 0000.0001)  MDS_READ_RL_VEC: irec =  00000001   00000672
(PID.TID 0000.0001)  MDSREADVECTOR: opening file: tapelev2_25_the_main_loop_atemp1.it0000.001.001.data
(PID.TID 0000.0001)  MDS_READ_RL_VEC: irec =  00000001   00000672
(PID.TID 0000.0001)  MDSREADVECTOR: opening file: tapelev2_26_the_main_loop_precip0.it0000.001.001.data
(PID.TID 0000.0001)  MDS_READ_RL_VEC: irec =  00000001   00000672
(PID.TID 0000.0001)  MDSREADVECTOR: opening file: tapelev2_27_the_main_loop_precip1.it0000.001.001.data
(PID.TID 0000.0001)  MDS_READ_RL_VEC: irec =  00000001   00000672
(PID.TID 0000.0001)  MDSREADVECTOR: opening file: tapelev2_28_the_main_loop_lwflux0.it0000.001.001.data
(PID.TID 0000.0001)  MDS_READ_RL_VEC: irec =  00000001   00000672
(PID.TID 0000.0001)  MDSREADVECTOR: opening file: tapelev2_29_the_main_loop_lwflux1.it0000.001.001.data
(PID.TID 0000.0001)  MDS_READ_RL_VEC: irec =  00000001   00000672
(PID.TID 0000.0001)  MDSREADVECTOR: opening file: tapelev2_30_the_main_loop_swflux0.it0000.001.001.data
(PID.TID 0000.0001)  MDS_READ_RL_VEC: irec =  00000001   00000672
(PID.TID 0000.0001)  MDSREADVECTOR: opening file: tapelev2_31_the_main_loop_swflux1.it0000.001.001.data
(PID.TID 0000.0001)  MDS_READ_RL_VEC: irec =  00000001   00000672
(PID.TID 0000.0001)  MDSREADVECTOR: opening file: tapelev2_32_the_main_loop_evap.it0000.001.001.data
(PID.TID 0000.0001)  MDS_READ_RL_VEC: irec =  00000001   00000672
(PID.TID 0000.0001)  MDSREADVECTOR: opening file: tapelev2_33_the_main_loop_uwind0.it0000.001.001.data
(PID.TID 0000.0001)  MDS_READ_RL_VEC: irec =  00000001   00000672
(PID.TID 0000.0001)  MDSREADVECTOR: opening file: tapelev2_34_the_main_loop_uwind1.it0000.001.001.data
(PID.TID 0000.0001)  MDS_READ_RL_VEC: irec =  00000001   00000672
(PID.TID 0000.0001)  MDSREADVECTOR: opening file: tapelev2_35_the_main_loop_vwind0.it0000.001.001.data
(PID.TID 0000.0001)  MDS_READ_RL_VEC: irec =  00000001   00000672
(PID.TID 0000.0001)  MDSREADVECTOR: opening file: tapelev2_36_the_main_loop_vwind1.it0000.001.001.data
(PID.TID 0000.0001)  MDS_READ_RL_VEC: irec =  00000001   00000672
(PID.TID 0000.0001) 
(PID.TID 0000.0001)  exf_GetFFieldsRec: first, changed, fac:   T   F   0.50000000E+00
(PID.TID 0000.0001)  exf_GetFFieldsRec:      count0, count1:   1   2
(PID.TID 0000.0001) 
(PID.TID 0000.0001)  MDSREADFIELD: opening global file: u10m.labsea79
(PID.TID 0000.0001)  MDSREADFIELD: opening global file: u10m.labsea79
(PID.TID 0000.0001) 
(PID.TID 0000.0001)  exf_GetFFieldsRec: first, changed, fac:   T   F   0.50000000E+00
(PID.TID 0000.0001)  exf_GetFFieldsRec:      count0, count1:   1   2
(PID.TID 0000.0001) 
(PID.TID 0000.0001)  MDSREADFIELD: opening global file: v10m.labsea79
(PID.TID 0000.0001)  MDSREADFIELD: opening global file: v10m.labsea79
(PID.TID 0000.0001)  MDSREADFIELD: opening file: xx_uwind.0000000000.001.001.data
(PID.TID 0000.0001)  MDSREADFIELD: opening file: xx_uwind.0000000000.001.001.data
(PID.TID 0000.0001)  MDSREADFIELD: opening file: xx_vwind.0000000000.001.001.data
(PID.TID 0000.0001)  MDSREADFIELD: opening file: xx_vwind.0000000000.001.001.data
(PID.TID 0000.0001) 
(PID.TID 0000.0001)  exf_GetFFieldsRec: first, changed, fac:   T   F   0.50000000E+00
(PID.TID 0000.0001)  exf_GetFFieldsRec:      count0, count1:   1   2
(PID.TID 0000.0001) 
(PID.TID 0000.0001)  MDSREADFIELD: opening global file: tair.labsea1979
(PID.TID 0000.0001)  MDSREADFIELD: opening global file: tair.labsea1979
(PID.TID 0000.0001) 
(PID.TID 0000.0001)  exf_GetFFieldsRec: first, changed, fac:   T   F   0.50000000E+00
(PID.TID 0000.0001)  exf_GetFFieldsRec:      count0, count1:   1   2
(PID.TID 0000.0001) 
(PID.TID 0000.0001)  MDSREADFIELD: opening global file: qa.labsea1979
(PID.TID 0000.0001)  MDSREADFIELD: opening global file: qa.labsea1979
(PID.TID 0000.0001) 
(PID.TID 0000.0001)  exf_GetFFieldsRec: first, changed, fac:   T   F   0.50000000E+00
(PID.TID 0000.0001)  exf_GetFFieldsRec:      count0, count1:   1   2
(PID.TID 0000.0001) 
(PID.TID 0000.0001)  MDSREADFIELD: opening global file: prate.labsea1979
(PID.TID 0000.0001)  MDSREADFIELD: opening global file: prate.labsea1979
(PID.TID 0000.0001)  MDSREADFIELD: opening file: xx_atemp.0000000000.001.001.data
(PID.TID 0000.0001)  MDSREADFIELD: opening file: xx_atemp.0000000000.001.001.data
(PID.TID 0000.0001)  MDSREADFIELD: opening file: xx_aqh.0000000000.001.001.data
(PID.TID 0000.0001)  MDSREADFIELD: opening file: xx_aqh.0000000000.001.001.data
(PID.TID 0000.0001) 
(PID.TID 0000.0001)  exf_GetFFieldsRec: first, changed, fac:   T   F   0.50000000E+00
(PID.TID 0000.0001)  exf_GetFFieldsRec:      count0, count1:   1   2
(PID.TID 0000.0001) 
(PID.TID 0000.0001)  MDSREADFIELD: opening global file: fsh.labsea1979
(PID.TID 0000.0001)  MDSREADFIELD: opening global file: fsh.labsea1979
(PID.TID 0000.0001) 
(PID.TID 0000.0001)  exf_GetFFieldsRec: first, changed, fac:   T   F   0.50000000E+00
(PID.TID 0000.0001)  exf_GetFFieldsRec:      count0, count1:   1   2
(PID.TID 0000.0001) 
(PID.TID 0000.0001)  MDSREADFIELD: opening global file: flo.labsea1979
(PID.TID 0000.0001)  MDSREADFIELD: opening global file: flo.labsea1979
 cg2d: Sum(rhs),rhsMax =   1.95590071916385E-16  1.00807802167630E+00
(PID.TID 0000.0001)                    cg2d_init_res =    1.61521300655486E+00
(PID.TID 0000.0001)                       cg2d_iters =    47
(PID.TID 0000.0001)                         cg2d_res =    5.70138941994743E-14
(PID.TID 0000.0001) 
(PID.TID 0000.0001)  exf_GetFFieldsRec: first, changed, fac:   F   F   0.49863388E+00
(PID.TID 0000.0001)  exf_GetFFieldsRec:      count0, count1:   1   2
(PID.TID 0000.0001) 
(PID.TID 0000.0001) 
(PID.TID 0000.0001)  exf_GetFFieldsRec: first, changed, fac:   F   F   0.49863388E+00
(PID.TID 0000.0001)  exf_GetFFieldsRec:      count0, count1:   1   2
(PID.TID 0000.0001) 
(PID.TID 0000.0001)  MDSREADFIELD: opening file: xx_uwind.0000000000.001.001.data
(PID.TID 0000.0001)  MDSREADFIELD: opening file: xx_uwind.0000000000.001.001.data
(PID.TID 0000.0001)  MDSREADFIELD: opening file: xx_vwind.0000000000.001.001.data
(PID.TID 0000.0001)  MDSREADFIELD: opening file: xx_vwind.0000000000.001.001.data
(PID.TID 0000.0001) 
(PID.TID 0000.0001)  exf_GetFFieldsRec: first, changed, fac:   F   F   0.49863388E+00
(PID.TID 0000.0001)  exf_GetFFieldsRec:      count0, count1:   1   2
(PID.TID 0000.0001) 
(PID.TID 0000.0001) 
(PID.TID 0000.0001)  exf_GetFFieldsRec: first, changed, fac:   F   F   0.49863388E+00
(PID.TID 0000.0001)  exf_GetFFieldsRec:      count0, count1:   1   2
(PID.TID 0000.0001) 
(PID.TID 0000.0001) 
(PID.TID 0000.0001)  exf_GetFFieldsRec: first, changed, fac:   F   F   0.49863388E+00
(PID.TID 0000.0001)  exf_GetFFieldsRec:      count0, count1:   1   2
(PID.TID 0000.0001) 
(PID.TID 0000.0001)  MDSREADFIELD: opening file: xx_atemp.0000000000.001.001.data
(PID.TID 0000.0001)  MDSREADFIELD: opening file: xx_atemp.0000000000.001.001.data
(PID.TID 0000.0001)  MDSREADFIELD: opening file: xx_aqh.0000000000.001.001.data
(PID.TID 0000.0001)  MDSREADFIELD: opening file: xx_aqh.0000000000.001.001.data
(PID.TID 0000.0001) 
(PID.TID 0000.0001)  exf_GetFFieldsRec: first, changed, fac:   F   F   0.49863388E+00
(PID.TID 0000.0001)  exf_GetFFieldsRec:      count0, count1:   1   2
(PID.TID 0000.0001) 
(PID.TID 0000.0001) 
(PID.TID 0000.0001)  exf_GetFFieldsRec: first, changed, fac:   F   F   0.49863388E+00
(PID.TID 0000.0001)  exf_GetFFieldsRec:      count0, count1:   1   2
(PID.TID 0000.0001) 
 cg2d: Sum(rhs),rhsMax =   7.37474317724640E-16  1.23585471329616E+00
(PID.TID 0000.0001)                    cg2d_init_res =    3.48544561450945E-01
(PID.TID 0000.0001)                       cg2d_iters =    45
(PID.TID 0000.0001)                         cg2d_res =    6.49477568692734E-14
(PID.TID 0000.0001) 
(PID.TID 0000.0001)  exf_GetFFieldsRec: first, changed, fac:   F   F   0.49726776E+00
(PID.TID 0000.0001)  exf_GetFFieldsRec:      count0, count1:   1   2
(PID.TID 0000.0001) 
(PID.TID 0000.0001) 
(PID.TID 0000.0001)  exf_GetFFieldsRec: first, changed, fac:   F   F   0.49726776E+00
(PID.TID 0000.0001)  exf_GetFFieldsRec:      count0, count1:   1   2
(PID.TID 0000.0001) 
(PID.TID 0000.0001)  MDSREADFIELD: opening file: xx_uwind.0000000000.001.001.data
(PID.TID 0000.0001)  MDSREADFIELD: opening file: xx_uwind.0000000000.001.001.data
(PID.TID 0000.0001)  MDSREADFIELD: opening file: xx_vwind.0000000000.001.001.data
(PID.TID 0000.0001)  MDSREADFIELD: opening file: xx_vwind.0000000000.001.001.data
(PID.TID 0000.0001) 
(PID.TID 0000.0001)  exf_GetFFieldsRec: first, changed, fac:   F   F   0.49726776E+00
(PID.TID 0000.0001)  exf_GetFFieldsRec:      count0, count1:   1   2
(PID.TID 0000.0001) 
(PID.TID 0000.0001) 
(PID.TID 0000.0001)  exf_GetFFieldsRec: first, changed, fac:   F   F   0.49726776E+00
(PID.TID 0000.0001)  exf_GetFFieldsRec:      count0, count1:   1   2
(PID.TID 0000.0001) 
(PID.TID 0000.0001) 
(PID.TID 0000.0001)  exf_GetFFieldsRec: first, changed, fac:   F   F   0.49726776E+00
(PID.TID 0000.0001)  exf_GetFFieldsRec:      count0, count1:   1   2
(PID.TID 0000.0001) 
(PID.TID 0000.0001)  MDSREADFIELD: opening file: xx_atemp.0000000000.001.001.data
(PID.TID 0000.0001)  MDSREADFIELD: opening file: xx_atemp.0000000000.001.001.data
(PID.TID 0000.0001)  MDSREADFIELD: opening file: xx_aqh.0000000000.001.001.data
(PID.TID 0000.0001)  MDSREADFIELD: opening file: xx_aqh.0000000000.001.001.data
(PID.TID 0000.0001) 
(PID.TID 0000.0001)  exf_GetFFieldsRec: first, changed, fac:   F   F   0.49726776E+00
(PID.TID 0000.0001)  exf_GetFFieldsRec:      count0, count1:   1   2
(PID.TID 0000.0001) 
(PID.TID 0000.0001) 
(PID.TID 0000.0001)  exf_GetFFieldsRec: first, changed, fac:   F   F   0.49726776E+00
(PID.TID 0000.0001)  exf_GetFFieldsRec:      count0, count1:   1   2
(PID.TID 0000.0001) 
 cg2d: Sum(rhs),rhsMax =   6.20553955443803E-15  1.25438452343302E+00
(PID.TID 0000.0001)                    cg2d_init_res =    2.36078257971889E-01
(PID.TID 0000.0001)                       cg2d_iters =    45
(PID.TID 0000.0001)                         cg2d_res =    6.62546240702124E-14
(PID.TID 0000.0001) 
(PID.TID 0000.0001)  exf_GetFFieldsRec: first, changed, fac:   F   F   0.49590164E+00
(PID.TID 0000.0001)  exf_GetFFieldsRec:      count0, count1:   1   2
(PID.TID 0000.0001) 
(PID.TID 0000.0001) 
(PID.TID 0000.0001)  exf_GetFFieldsRec: first, changed, fac:   F   F   0.49590164E+00
(PID.TID 0000.0001)  exf_GetFFieldsRec:      count0, count1:   1   2
(PID.TID 0000.0001) 
(PID.TID 0000.0001)  MDSREADFIELD: opening file: xx_uwind.0000000000.001.001.data
(PID.TID 0000.0001)  MDSREADFIELD: opening file: xx_uwind.0000000000.001.001.data
(PID.TID 0000.0001)  MDSREADFIELD: opening file: xx_vwind.0000000000.001.001.data
(PID.TID 0000.0001)  MDSREADFIELD: opening file: xx_vwind.0000000000.001.001.data
(PID.TID 0000.0001) 
(PID.TID 0000.0001)  exf_GetFFieldsRec: first, changed, fac:   F   F   0.49590164E+00
(PID.TID 0000.0001)  exf_GetFFieldsRec:      count0, count1:   1   2
(PID.TID 0000.0001) 
(PID.TID 0000.0001) 
(PID.TID 0000.0001)  exf_GetFFieldsRec: first, changed, fac:   F   F   0.49590164E+00
(PID.TID 0000.0001)  exf_GetFFieldsRec:      count0, count1:   1   2
(PID.TID 0000.0001) 
(PID.TID 0000.0001) 
(PID.TID 0000.0001)  exf_GetFFieldsRec: first, changed, fac:   F   F   0.49590164E+00
(PID.TID 0000.0001)  exf_GetFFieldsRec:      count0, count1:   1   2
(PID.TID 0000.0001) 
(PID.TID 0000.0001)  MDSREADFIELD: opening file: xx_atemp.0000000000.001.001.data
(PID.TID 0000.0001)  MDSREADFIELD: opening file: xx_atemp.0000000000.001.001.data
(PID.TID 0000.0001)  MDSREADFIELD: opening file: xx_aqh.0000000000.001.001.data
(PID.TID 0000.0001)  MDSREADFIELD: opening file: xx_aqh.0000000000.001.001.data
(PID.TID 0000.0001) 
(PID.TID 0000.0001)  exf_GetFFieldsRec: first, changed, fac:   F   F   0.49590164E+00
(PID.TID 0000.0001)  exf_GetFFieldsRec:      count0, count1:   1   2
(PID.TID 0000.0001) 
(PID.TID 0000.0001) 
(PID.TID 0000.0001)  exf_GetFFieldsRec: first, changed, fac:   F   F   0.49590164E+00
(PID.TID 0000.0001)  exf_GetFFieldsRec:      count0, count1:   1   2
(PID.TID 0000.0001) 
 cg2d: Sum(rhs),rhsMax =   3.20620266447413E-15  1.25494322187447E+00
(PID.TID 0000.0001)                    cg2d_init_res =    1.82553144014713E-01
(PID.TID 0000.0001)                       cg2d_iters =    45
(PID.TID 0000.0001)                         cg2d_res =    5.12415163303431E-14
(PID.TID 0000.0001)  MDSREADVECTOR: opening file: tapelev2_1_the_main_loop_gsnm1.it0000.001.001.data
(PID.TID 0000.0001)  MDS_READ_RL_VEC: irec =  00000001   00015456
(PID.TID 0000.0001)  MDSREADVECTOR: opening file: tapelev2_2_the_main_loop_gtnm1.it0000.001.001.data
(PID.TID 0000.0001)  MDS_READ_RL_VEC: irec =  00000001   00015456
(PID.TID 0000.0001)  MDSREADVECTOR: opening file: tapelev2_3_the_main_loop_gunm1.it0000.001.001.data
(PID.TID 0000.0001)  MDS_READ_RL_VEC: irec =  00000001   00015456
(PID.TID 0000.0001)  MDSREADVECTOR: opening file: tapelev2_4_the_main_loop_gvnm1.it0000.001.001.data
(PID.TID 0000.0001)  MDS_READ_RL_VEC: irec =  00000001   00015456
(PID.TID 0000.0001)  MDSREADVECTOR: opening file: tapelev2_5_the_main_loop_theta.it0000.001.001.data
(PID.TID 0000.0001)  MDS_READ_RL_VEC: irec =  00000001   00015456
(PID.TID 0000.0001)  MDSREADVECTOR: opening file: tapelev2_6_the_main_loop_salt.it0000.001.001.data
(PID.TID 0000.0001)  MDS_READ_RL_VEC: irec =  00000001   00015456
(PID.TID 0000.0001)  MDSREADVECTOR: opening file: tapelev2_7_the_main_loop_uvel.it0000.001.001.data
(PID.TID 0000.0001)  MDS_READ_RL_VEC: irec =  00000001   00015456
(PID.TID 0000.0001)  MDSREADVECTOR: opening file: tapelev2_8_the_main_loop_vvel.it0000.001.001.data
(PID.TID 0000.0001)  MDS_READ_RL_VEC: irec =  00000001   00015456
(PID.TID 0000.0001)  MDSREADVECTOR: opening file: tapelev2_9_the_main_loop_wvel.it0000.001.001.data
(PID.TID 0000.0001)  MDS_READ_RL_VEC: irec =  00000001   00015456
(PID.TID 0000.0001)  MDSREADVECTOR: opening file: tapelev2_10_the_main_loop_etan.it0000.001.001.data
(PID.TID 0000.0001)  MDS_READ_RL_VEC: irec =  00000001   00000672
(PID.TID 0000.0001)  MDSREADVECTOR: opening file: tapelev2_11_the_main_loop_gu.it0000.001.001.data
(PID.TID 0000.0001)  MDS_READ_RL_VEC: irec =  00000001   00015456
(PID.TID 0000.0001)  MDSREADVECTOR: opening file: tapelev2_12_the_main_loop_gv.it0000.001.001.data
(PID.TID 0000.0001)  MDS_READ_RL_VEC: irec =  00000001   00015456
(PID.TID 0000.0001)  MDSREADVECTOR: opening file: tapelev2_13_the_main_loop_uveld.it0000.001.001.data
(PID.TID 0000.0001)  MDS_READ_RL_VEC: irec =  00000001   00015456
(PID.TID 0000.0001)  MDSREADVECTOR: opening file: tapelev2_14_the_main_loop_vveld.it0000.001.001.data
(PID.TID 0000.0001)  MDS_READ_RL_VEC: irec =  00000001   00015456
(PID.TID 0000.0001)  MDSREADVECTOR: opening file: tapelev2_15_the_main_loop_etanm1.it0000.001.001.data
(PID.TID 0000.0001)  MDS_READ_RL_VEC: irec =  00000001   00000672
(PID.TID 0000.0001)  MDSREADVECTOR: opening file: tapelev2_16_the_main_loop_unm1.it0000.001.001.data
(PID.TID 0000.0001)  MDS_READ_RL_VEC: irec =  00000001   00015456
(PID.TID 0000.0001)  MDSREADVECTOR: opening file: tapelev2_17_the_main_loop_vnm1.it0000.001.001.data
(PID.TID 0000.0001)  MDS_READ_RL_VEC: irec =  00000001   00015456
(PID.TID 0000.0001)  MDSREADVECTOR: opening file: tapelev2_18_the_main_loop_gucd.it0000.001.001.data
(PID.TID 0000.0001)  MDS_READ_RL_VEC: irec =  00000001   00015456
(PID.TID 0000.0001)  MDSREADVECTOR: opening file: tapelev2_19_the_main_loop_gvcd.it0000.001.001.data
(PID.TID 0000.0001)  MDS_READ_RL_VEC: irec =  00000001   00015456
(PID.TID 0000.0001)  MDSREADVECTOR: opening file: tapelev2_20_the_main_loop_etah.it0000.001.001.data
(PID.TID 0000.0001)  MDS_READ_RL_VEC: irec =  00000001   00000672
(PID.TID 0000.0001)  MDSREADVECTOR: opening file: tapelev2_21_the_main_loop_hdivflow.it0000.001.001.data
(PID.TID 0000.0001)  MDS_READ_RL_VEC: irec =  00000001   00000672
(PID.TID 0000.0001)  MDSREADVECTOR: opening file: tapelev2_22_the_main_loop_aqh0.it0000.001.001.data
(PID.TID 0000.0001)  MDS_READ_RL_VEC: irec =  00000001   00000672
(PID.TID 0000.0001)  MDSREADVECTOR: opening file: tapelev2_23_the_main_loop_aqh1.it0000.001.001.data
(PID.TID 0000.0001)  MDS_READ_RL_VEC: irec =  00000001   00000672
(PID.TID 0000.0001)  MDSREADVECTOR: opening file: tapelev2_24_the_main_loop_atemp0.it0000.001.001.data
(PID.TID 0000.0001)  MDS_READ_RL_VEC: irec =  00000001   00000672
(PID.TID 0000.0001)  MDSREADVECTOR: opening file: tapelev2_25_the_main_loop_atemp1.it0000.001.001.data
(PID.TID 0000.0001)  MDS_READ_RL_VEC: irec =  00000001   00000672
(PID.TID 0000.0001)  MDSREADVECTOR: opening file: tapelev2_26_the_main_loop_precip0.it0000.001.001.data
(PID.TID 0000.0001)  MDS_READ_RL_VEC: irec =  00000001   00000672
(PID.TID 0000.0001)  MDSREADVECTOR: opening file: tapelev2_27_the_main_loop_precip1.it0000.001.001.data
(PID.TID 0000.0001)  MDS_READ_RL_VEC: irec =  00000001   00000672
(PID.TID 0000.0001)  MDSREADVECTOR: opening file: tapelev2_28_the_main_loop_lwflux0.it0000.001.001.data
(PID.TID 0000.0001)  MDS_READ_RL_VEC: irec =  00000001   00000672
(PID.TID 0000.0001)  MDSREADVECTOR: opening file: tapelev2_29_the_main_loop_lwflux1.it0000.001.001.data
(PID.TID 0000.0001)  MDS_READ_RL_VEC: irec =  00000001   00000672
(PID.TID 0000.0001)  MDSREADVECTOR: opening file: tapelev2_30_the_main_loop_swflux0.it0000.001.001.data
(PID.TID 0000.0001)  MDS_READ_RL_VEC: irec =  00000001   00000672
(PID.TID 0000.0001)  MDSREADVECTOR: opening file: tapelev2_31_the_main_loop_swflux1.it0000.001.001.data
(PID.TID 0000.0001)  MDS_READ_RL_VEC: irec =  00000001   00000672
(PID.TID 0000.0001)  MDSREADVECTOR: opening file: tapelev2_32_the_main_loop_evap.it0000.001.001.data
(PID.TID 0000.0001)  MDS_READ_RL_VEC: irec =  00000001   00000672
(PID.TID 0000.0001)  MDSREADVECTOR: opening file: tapelev2_33_the_main_loop_uwind0.it0000.001.001.data
(PID.TID 0000.0001)  MDS_READ_RL_VEC: irec =  00000001   00000672
(PID.TID 0000.0001)  MDSREADVECTOR: opening file: tapelev2_34_the_main_loop_uwind1.it0000.001.001.data
(PID.TID 0000.0001)  MDS_READ_RL_VEC: irec =  00000001   00000672
(PID.TID 0000.0001)  MDSREADVECTOR: opening file: tapelev2_35_the_main_loop_vwind0.it0000.001.001.data
(PID.TID 0000.0001)  MDS_READ_RL_VEC: irec =  00000001   00000672
(PID.TID 0000.0001)  MDSREADVECTOR: opening file: tapelev2_36_the_main_loop_vwind1.it0000.001.001.data
(PID.TID 0000.0001)  MDS_READ_RL_VEC: irec =  00000001   00000672
(PID.TID 0000.0001) 
(PID.TID 0000.0001)  exf_GetFFieldsRec: first, changed, fac:   T   F   0.50000000E+00
(PID.TID 0000.0001)  exf_GetFFieldsRec:      count0, count1:   1   2
(PID.TID 0000.0001) 
(PID.TID 0000.0001)  MDSREADFIELD: opening global file: u10m.labsea79
(PID.TID 0000.0001)  MDSREADFIELD: opening global file: u10m.labsea79
(PID.TID 0000.0001) 
(PID.TID 0000.0001)  exf_GetFFieldsRec: first, changed, fac:   T   F   0.50000000E+00
(PID.TID 0000.0001)  exf_GetFFieldsRec:      count0, count1:   1   2
(PID.TID 0000.0001) 
(PID.TID 0000.0001)  MDSREADFIELD: opening global file: v10m.labsea79
(PID.TID 0000.0001)  MDSREADFIELD: opening global file: v10m.labsea79
(PID.TID 0000.0001)  MDSREADFIELD: opening file: xx_uwind.0000000000.001.001.data
(PID.TID 0000.0001)  MDSREADFIELD: opening file: xx_uwind.0000000000.001.001.data
(PID.TID 0000.0001)  MDSREADFIELD: opening file: xx_vwind.0000000000.001.001.data
(PID.TID 0000.0001)  MDSREADFIELD: opening file: xx_vwind.0000000000.001.001.data
(PID.TID 0000.0001) 
(PID.TID 0000.0001)  exf_GetFFieldsRec: first, changed, fac:   T   F   0.50000000E+00
(PID.TID 0000.0001)  exf_GetFFieldsRec:      count0, count1:   1   2
(PID.TID 0000.0001) 
(PID.TID 0000.0001)  MDSREADFIELD: opening global file: tair.labsea1979
(PID.TID 0000.0001)  MDSREADFIELD: opening global file: tair.labsea1979
(PID.TID 0000.0001) 
(PID.TID 0000.0001)  exf_GetFFieldsRec: first, changed, fac:   T   F   0.50000000E+00
(PID.TID 0000.0001)  exf_GetFFieldsRec:      count0, count1:   1   2
(PID.TID 0000.0001) 
(PID.TID 0000.0001)  MDSREADFIELD: opening global file: qa.labsea1979
(PID.TID 0000.0001)  MDSREADFIELD: opening global file: qa.labsea1979
(PID.TID 0000.0001) 
(PID.TID 0000.0001)  exf_GetFFieldsRec: first, changed, fac:   T   F   0.50000000E+00
(PID.TID 0000.0001)  exf_GetFFieldsRec:      count0, count1:   1   2
(PID.TID 0000.0001) 
(PID.TID 0000.0001)  MDSREADFIELD: opening global file: prate.labsea1979
(PID.TID 0000.0001)  MDSREADFIELD: opening global file: prate.labsea1979
(PID.TID 0000.0001)  MDSREADFIELD: opening file: xx_atemp.0000000000.001.001.data
(PID.TID 0000.0001)  MDSREADFIELD: opening file: xx_atemp.0000000000.001.001.data
(PID.TID 0000.0001)  MDSREADFIELD: opening file: xx_aqh.0000000000.001.001.data
(PID.TID 0000.0001)  MDSREADFIELD: opening file: xx_aqh.0000000000.001.001.data
(PID.TID 0000.0001) 
(PID.TID 0000.0001)  exf_GetFFieldsRec: first, changed, fac:   T   F   0.50000000E+00
(PID.TID 0000.0001)  exf_GetFFieldsRec:      count0, count1:   1   2
(PID.TID 0000.0001) 
(PID.TID 0000.0001)  MDSREADFIELD: opening global file: fsh.labsea1979
(PID.TID 0000.0001)  MDSREADFIELD: opening global file: fsh.labsea1979
(PID.TID 0000.0001) 
(PID.TID 0000.0001)  exf_GetFFieldsRec: first, changed, fac:   T   F   0.50000000E+00
(PID.TID 0000.0001)  exf_GetFFieldsRec:      count0, count1:   1   2
(PID.TID 0000.0001) 
(PID.TID 0000.0001)  MDSREADFIELD: opening global file: flo.labsea1979
(PID.TID 0000.0001)  MDSREADFIELD: opening global file: flo.labsea1979
 cg2d: Sum(rhs),rhsMax =   1.95590071916385E-16  1.00807802167630E+00
(PID.TID 0000.0001)                    cg2d_init_res =    1.61521300655486E+00
(PID.TID 0000.0001)                       cg2d_iters =    47
(PID.TID 0000.0001)                         cg2d_res =    5.70138941994743E-14
(PID.TID 0000.0001) 
(PID.TID 0000.0001)  exf_GetFFieldsRec: first, changed, fac:   F   F   0.49863388E+00
(PID.TID 0000.0001)  exf_GetFFieldsRec:      count0, count1:   1   2
(PID.TID 0000.0001) 
(PID.TID 0000.0001) 
(PID.TID 0000.0001)  exf_GetFFieldsRec: first, changed, fac:   F   F   0.49863388E+00
(PID.TID 0000.0001)  exf_GetFFieldsRec:      count0, count1:   1   2
(PID.TID 0000.0001) 
(PID.TID 0000.0001)  MDSREADFIELD: opening file: xx_uwind.0000000000.001.001.data
(PID.TID 0000.0001)  MDSREADFIELD: opening file: xx_uwind.0000000000.001.001.data
(PID.TID 0000.0001)  MDSREADFIELD: opening file: xx_vwind.0000000000.001.001.data
(PID.TID 0000.0001)  MDSREADFIELD: opening file: xx_vwind.0000000000.001.001.data
(PID.TID 0000.0001) 
(PID.TID 0000.0001)  exf_GetFFieldsRec: first, changed, fac:   F   F   0.49863388E+00
(PID.TID 0000.0001)  exf_GetFFieldsRec:      count0, count1:   1   2
(PID.TID 0000.0001) 
(PID.TID 0000.0001) 
(PID.TID 0000.0001)  exf_GetFFieldsRec: first, changed, fac:   F   F   0.49863388E+00
(PID.TID 0000.0001)  exf_GetFFieldsRec:      count0, count1:   1   2
(PID.TID 0000.0001) 
(PID.TID 0000.0001) 
(PID.TID 0000.0001)  exf_GetFFieldsRec: first, changed, fac:   F   F   0.49863388E+00
(PID.TID 0000.0001)  exf_GetFFieldsRec:      count0, count1:   1   2
(PID.TID 0000.0001) 
(PID.TID 0000.0001)  MDSREADFIELD: opening file: xx_atemp.0000000000.001.001.data
(PID.TID 0000.0001)  MDSREADFIELD: opening file: xx_atemp.0000000000.001.001.data
(PID.TID 0000.0001)  MDSREADFIELD: opening file: xx_aqh.0000000000.001.001.data
(PID.TID 0000.0001)  MDSREADFIELD: opening file: xx_aqh.0000000000.001.001.data
(PID.TID 0000.0001) 
(PID.TID 0000.0001)  exf_GetFFieldsRec: first, changed, fac:   F   F   0.49863388E+00
(PID.TID 0000.0001)  exf_GetFFieldsRec:      count0, count1:   1   2
(PID.TID 0000.0001) 
(PID.TID 0000.0001) 
(PID.TID 0000.0001)  exf_GetFFieldsRec: first, changed, fac:   F   F   0.49863388E+00
(PID.TID 0000.0001)  exf_GetFFieldsRec:      count0, count1:   1   2
(PID.TID 0000.0001) 
 cg2d: Sum(rhs),rhsMax =   7.37474317724640E-16  1.23585471329616E+00
(PID.TID 0000.0001)                    cg2d_init_res =    3.48544561450945E-01
(PID.TID 0000.0001)                       cg2d_iters =    45
(PID.TID 0000.0001)                         cg2d_res =    6.49477568692734E-14
(PID.TID 0000.0001) 
(PID.TID 0000.0001)  exf_GetFFieldsRec: first, changed, fac:   F   F   0.49726776E+00
(PID.TID 0000.0001)  exf_GetFFieldsRec:      count0, count1:   1   2
(PID.TID 0000.0001) 
(PID.TID 0000.0001) 
(PID.TID 0000.0001)  exf_GetFFieldsRec: first, changed, fac:   F   F   0.49726776E+00
(PID.TID 0000.0001)  exf_GetFFieldsRec:      count0, count1:   1   2
(PID.TID 0000.0001) 
(PID.TID 0000.0001)  MDSREADFIELD: opening file: xx_uwind.0000000000.001.001.data
(PID.TID 0000.0001)  MDSREADFIELD: opening file: xx_uwind.0000000000.001.001.data
(PID.TID 0000.0001)  MDSREADFIELD: opening file: xx_vwind.0000000000.001.001.data
(PID.TID 0000.0001)  MDSREADFIELD: opening file: xx_vwind.0000000000.001.001.data
(PID.TID 0000.0001) 
(PID.TID 0000.0001)  exf_GetFFieldsRec: first, changed, fac:   F   F   0.49726776E+00
(PID.TID 0000.0001)  exf_GetFFieldsRec:      count0, count1:   1   2
(PID.TID 0000.0001) 
(PID.TID 0000.0001) 
(PID.TID 0000.0001)  exf_GetFFieldsRec: first, changed, fac:   F   F   0.49726776E+00
(PID.TID 0000.0001)  exf_GetFFieldsRec:      count0, count1:   1   2
(PID.TID 0000.0001) 
(PID.TID 0000.0001) 
(PID.TID 0000.0001)  exf_GetFFieldsRec: first, changed, fac:   F   F   0.49726776E+00
(PID.TID 0000.0001)  exf_GetFFieldsRec:      count0, count1:   1   2
(PID.TID 0000.0001) 
(PID.TID 0000.0001)  MDSREADFIELD: opening file: xx_atemp.0000000000.001.001.data
(PID.TID 0000.0001)  MDSREADFIELD: opening file: xx_atemp.0000000000.001.001.data
(PID.TID 0000.0001)  MDSREADFIELD: opening file: xx_aqh.0000000000.001.001.data
(PID.TID 0000.0001)  MDSREADFIELD: opening file: xx_aqh.0000000000.001.001.data
(PID.TID 0000.0001) 
(PID.TID 0000.0001)  exf_GetFFieldsRec: first, changed, fac:   F   F   0.49726776E+00
(PID.TID 0000.0001)  exf_GetFFieldsRec:      count0, count1:   1   2
(PID.TID 0000.0001) 
(PID.TID 0000.0001) 
(PID.TID 0000.0001)  exf_GetFFieldsRec: first, changed, fac:   F   F   0.49726776E+00
(PID.TID 0000.0001)  exf_GetFFieldsRec:      count0, count1:   1   2
(PID.TID 0000.0001) 
 cg2d: Sum(rhs),rhsMax =   6.20553955443803E-15  1.25438452343302E+00
(PID.TID 0000.0001)                    cg2d_init_res =    2.36078257971889E-01
(PID.TID 0000.0001)                       cg2d_iters =    45
(PID.TID 0000.0001)                         cg2d_res =    6.62546240702124E-14
(PID.TID 0000.0001) 
(PID.TID 0000.0001)  exf_GetFFieldsRec: first, changed, fac:   F   F   0.49590164E+00
(PID.TID 0000.0001)  exf_GetFFieldsRec:      count0, count1:   1   2
(PID.TID 0000.0001) 
(PID.TID 0000.0001) 
(PID.TID 0000.0001)  exf_GetFFieldsRec: first, changed, fac:   F   F   0.49590164E+00
(PID.TID 0000.0001)  exf_GetFFieldsRec:      count0, count1:   1   2
(PID.TID 0000.0001) 
(PID.TID 0000.0001)  MDSREADFIELD: opening file: xx_uwind.0000000000.001.001.data
(PID.TID 0000.0001)  MDSREADFIELD: opening file: xx_uwind.0000000000.001.001.data
(PID.TID 0000.0001)  MDSREADFIELD: opening file: xx_vwind.0000000000.001.001.data
(PID.TID 0000.0001)  MDSREADFIELD: opening file: xx_vwind.0000000000.001.001.data
(PID.TID 0000.0001) 
(PID.TID 0000.0001)  exf_GetFFieldsRec: first, changed, fac:   F   F   0.49590164E+00
(PID.TID 0000.0001)  exf_GetFFieldsRec:      count0, count1:   1   2
(PID.TID 0000.0001) 
(PID.TID 0000.0001) 
(PID.TID 0000.0001)  exf_GetFFieldsRec: first, changed, fac:   F   F   0.49590164E+00
(PID.TID 0000.0001)  exf_GetFFieldsRec:      count0, count1:   1   2
(PID.TID 0000.0001) 
(PID.TID 0000.0001) 
(PID.TID 0000.0001)  exf_GetFFieldsRec: first, changed, fac:   F   F   0.49590164E+00
(PID.TID 0000.0001)  exf_GetFFieldsRec:      count0, count1:   1   2
(PID.TID 0000.0001) 
(PID.TID 0000.0001)  MDSREADFIELD: opening file: xx_atemp.0000000000.001.001.data
(PID.TID 0000.0001)  MDSREADFIELD: opening file: xx_atemp.0000000000.001.001.data
(PID.TID 0000.0001)  MDSREADFIELD: opening file: xx_aqh.0000000000.001.001.data
(PID.TID 0000.0001)  MDSREADFIELD: opening file: xx_aqh.0000000000.001.001.data
(PID.TID 0000.0001) 
(PID.TID 0000.0001)  exf_GetFFieldsRec: first, changed, fac:   F   F   0.49590164E+00
(PID.TID 0000.0001)  exf_GetFFieldsRec:      count0, count1:   1   2
(PID.TID 0000.0001) 
(PID.TID 0000.0001) 
(PID.TID 0000.0001)  exf_GetFFieldsRec: first, changed, fac:   F   F   0.49590164E+00
(PID.TID 0000.0001)  exf_GetFFieldsRec:      count0, count1:   1   2
(PID.TID 0000.0001) 
 cg2d: Sum(rhs),rhsMax =   3.20620266447413E-15  1.25494322187447E+00
(PID.TID 0000.0001)                    cg2d_init_res =    1.82553144014713E-01
(PID.TID 0000.0001)                       cg2d_iters =    45
(PID.TID 0000.0001)                         cg2d_res =    5.12415163303431E-14
(PID.TID 0000.0001)  MDSREADVECTOR: opening file: tapelev2_1_the_main_loop_gsnm1.it0000.001.001.data
(PID.TID 0000.0001)  MDS_READ_RL_VEC: irec =  00000001   00015456
(PID.TID 0000.0001)  MDSREADVECTOR: opening file: tapelev2_2_the_main_loop_gtnm1.it0000.001.001.data
(PID.TID 0000.0001)  MDS_READ_RL_VEC: irec =  00000001   00015456
(PID.TID 0000.0001)  MDSREADVECTOR: opening file: tapelev2_3_the_main_loop_gunm1.it0000.001.001.data
(PID.TID 0000.0001)  MDS_READ_RL_VEC: irec =  00000001   00015456
(PID.TID 0000.0001)  MDSREADVECTOR: opening file: tapelev2_4_the_main_loop_gvnm1.it0000.001.001.data
(PID.TID 0000.0001)  MDS_READ_RL_VEC: irec =  00000001   00015456
(PID.TID 0000.0001)  MDSREADVECTOR: opening file: tapelev2_5_the_main_loop_theta.it0000.001.001.data
(PID.TID 0000.0001)  MDS_READ_RL_VEC: irec =  00000001   00015456
(PID.TID 0000.0001)  MDSREADVECTOR: opening file: tapelev2_6_the_main_loop_salt.it0000.001.001.data
(PID.TID 0000.0001)  MDS_READ_RL_VEC: irec =  00000001   00015456
(PID.TID 0000.0001)  MDSREADVECTOR: opening file: tapelev2_7_the_main_loop_uvel.it0000.001.001.data
(PID.TID 0000.0001)  MDS_READ_RL_VEC: irec =  00000001   00015456
(PID.TID 0000.0001)  MDSREADVECTOR: opening file: tapelev2_8_the_main_loop_vvel.it0000.001.001.data
(PID.TID 0000.0001)  MDS_READ_RL_VEC: irec =  00000001   00015456
(PID.TID 0000.0001)  MDSREADVECTOR: opening file: tapelev2_9_the_main_loop_wvel.it0000.001.001.data
(PID.TID 0000.0001)  MDS_READ_RL_VEC: irec =  00000001   00015456
(PID.TID 0000.0001)  MDSREADVECTOR: opening file: tapelev2_10_the_main_loop_etan.it0000.001.001.data
(PID.TID 0000.0001)  MDS_READ_RL_VEC: irec =  00000001   00000672
(PID.TID 0000.0001)  MDSREADVECTOR: opening file: tapelev2_11_the_main_loop_gu.it0000.001.001.data
(PID.TID 0000.0001)  MDS_READ_RL_VEC: irec =  00000001   00015456
(PID.TID 0000.0001)  MDSREADVECTOR: opening file: tapelev2_12_the_main_loop_gv.it0000.001.001.data
(PID.TID 0000.0001)  MDS_READ_RL_VEC: irec =  00000001   00015456
(PID.TID 0000.0001)  MDSREADVECTOR: opening file: tapelev2_13_the_main_loop_uveld.it0000.001.001.data
(PID.TID 0000.0001)  MDS_READ_RL_VEC: irec =  00000001   00015456
(PID.TID 0000.0001)  MDSREADVECTOR: opening file: tapelev2_14_the_main_loop_vveld.it0000.001.001.data
(PID.TID 0000.0001)  MDS_READ_RL_VEC: irec =  00000001   00015456
(PID.TID 0000.0001)  MDSREADVECTOR: opening file: tapelev2_15_the_main_loop_etanm1.it0000.001.001.data
(PID.TID 0000.0001)  MDS_READ_RL_VEC: irec =  00000001   00000672
(PID.TID 0000.0001)  MDSREADVECTOR: opening file: tapelev2_16_the_main_loop_unm1.it0000.001.001.data
(PID.TID 0000.0001)  MDS_READ_RL_VEC: irec =  00000001   00015456
(PID.TID 0000.0001)  MDSREADVECTOR: opening file: tapelev2_17_the_main_loop_vnm1.it0000.001.001.data
(PID.TID 0000.0001)  MDS_READ_RL_VEC: irec =  00000001   00015456
(PID.TID 0000.0001)  MDSREADVECTOR: opening file: tapelev2_18_the_main_loop_gucd.it0000.001.001.data
(PID.TID 0000.0001)  MDS_READ_RL_VEC: irec =  00000001   00015456
(PID.TID 0000.0001)  MDSREADVECTOR: opening file: tapelev2_19_the_main_loop_gvcd.it0000.001.001.data
(PID.TID 0000.0001)  MDS_READ_RL_VEC: irec =  00000001   00015456
(PID.TID 0000.0001)  MDSREADVECTOR: opening file: tapelev2_20_the_main_loop_etah.it0000.001.001.data
(PID.TID 0000.0001)  MDS_READ_RL_VEC: irec =  00000001   00000672
(PID.TID 0000.0001)  MDSREADVECTOR: opening file: tapelev2_21_the_main_loop_hdivflow.it0000.001.001.data
(PID.TID 0000.0001)  MDS_READ_RL_VEC: irec =  00000001   00000672
(PID.TID 0000.0001)  MDSREADVECTOR: opening file: tapelev2_22_the_main_loop_aqh0.it0000.001.001.data
(PID.TID 0000.0001)  MDS_READ_RL_VEC: irec =  00000001   00000672
(PID.TID 0000.0001)  MDSREADVECTOR: opening file: tapelev2_23_the_main_loop_aqh1.it0000.001.001.data
(PID.TID 0000.0001)  MDS_READ_RL_VEC: irec =  00000001   00000672
(PID.TID 0000.0001)  MDSREADVECTOR: opening file: tapelev2_24_the_main_loop_atemp0.it0000.001.001.data
(PID.TID 0000.0001)  MDS_READ_RL_VEC: irec =  00000001   00000672
(PID.TID 0000.0001)  MDSREADVECTOR: opening file: tapelev2_25_the_main_loop_atemp1.it0000.001.001.data
(PID.TID 0000.0001)  MDS_READ_RL_VEC: irec =  00000001   00000672
(PID.TID 0000.0001)  MDSREADVECTOR: opening file: tapelev2_26_the_main_loop_precip0.it0000.001.001.data
(PID.TID 0000.0001)  MDS_READ_RL_VEC: irec =  00000001   00000672
(PID.TID 0000.0001)  MDSREADVECTOR: opening file: tapelev2_27_the_main_loop_precip1.it0000.001.001.data
(PID.TID 0000.0001)  MDS_READ_RL_VEC: irec =  00000001   00000672
(PID.TID 0000.0001)  MDSREADVECTOR: opening file: tapelev2_28_the_main_loop_lwflux0.it0000.001.001.data
(PID.TID 0000.0001)  MDS_READ_RL_VEC: irec =  00000001   00000672
(PID.TID 0000.0001)  MDSREADVECTOR: opening file: tapelev2_29_the_main_loop_lwflux1.it0000.001.001.data
(PID.TID 0000.0001)  MDS_READ_RL_VEC: irec =  00000001   00000672
(PID.TID 0000.0001)  MDSREADVECTOR: opening file: tapelev2_30_the_main_loop_swflux0.it0000.001.001.data
(PID.TID 0000.0001)  MDS_READ_RL_VEC: irec =  00000001   00000672
(PID.TID 0000.0001)  MDSREADVECTOR: opening file: tapelev2_31_the_main_loop_swflux1.it0000.001.001.data
(PID.TID 0000.0001)  MDS_READ_RL_VEC: irec =  00000001   00000672
(PID.TID 0000.0001)  MDSREADVECTOR: opening file: tapelev2_32_the_main_loop_evap.it0000.001.001.data
(PID.TID 0000.0001)  MDS_READ_RL_VEC: irec =  00000001   00000672
(PID.TID 0000.0001)  MDSREADVECTOR: opening file: tapelev2_33_the_main_loop_uwind0.it0000.001.001.data
(PID.TID 0000.0001)  MDS_READ_RL_VEC: irec =  00000001   00000672
(PID.TID 0000.0001)  MDSREADVECTOR: opening file: tapelev2_34_the_main_loop_uwind1.it0000.001.001.data
(PID.TID 0000.0001)  MDS_READ_RL_VEC: irec =  00000001   00000672
(PID.TID 0000.0001)  MDSREADVECTOR: opening file: tapelev2_35_the_main_loop_vwind0.it0000.001.001.data
(PID.TID 0000.0001)  MDS_READ_RL_VEC: irec =  00000001   00000672
(PID.TID 0000.0001)  MDSREADVECTOR: opening file: tapelev2_36_the_main_loop_vwind1.it0000.001.001.data
(PID.TID 0000.0001)  MDS_READ_RL_VEC: irec =  00000001   00000672
(PID.TID 0000.0001) 
(PID.TID 0000.0001)  exf_GetFFieldsRec: first, changed, fac:   T   F   0.50000000E+00
(PID.TID 0000.0001)  exf_GetFFieldsRec:      count0, count1:   1   2
(PID.TID 0000.0001) 
(PID.TID 0000.0001)  MDSREADFIELD: opening global file: u10m.labsea79
(PID.TID 0000.0001)  MDSREADFIELD: opening global file: u10m.labsea79
(PID.TID 0000.0001) 
(PID.TID 0000.0001)  exf_GetFFieldsRec: first, changed, fac:   T   F   0.50000000E+00
(PID.TID 0000.0001)  exf_GetFFieldsRec:      count0, count1:   1   2
(PID.TID 0000.0001) 
(PID.TID 0000.0001)  MDSREADFIELD: opening global file: v10m.labsea79
(PID.TID 0000.0001)  MDSREADFIELD: opening global file: v10m.labsea79
(PID.TID 0000.0001)  MDSREADFIELD: opening file: xx_uwind.0000000000.001.001.data
(PID.TID 0000.0001)  MDSREADFIELD: opening file: xx_uwind.0000000000.001.001.data
(PID.TID 0000.0001)  MDSREADFIELD: opening file: xx_vwind.0000000000.001.001.data
(PID.TID 0000.0001)  MDSREADFIELD: opening file: xx_vwind.0000000000.001.001.data
(PID.TID 0000.0001) 
(PID.TID 0000.0001)  exf_GetFFieldsRec: first, changed, fac:   T   F   0.50000000E+00
(PID.TID 0000.0001)  exf_GetFFieldsRec:      count0, count1:   1   2
(PID.TID 0000.0001) 
(PID.TID 0000.0001)  MDSREADFIELD: opening global file: tair.labsea1979
(PID.TID 0000.0001)  MDSREADFIELD: opening global file: tair.labsea1979
(PID.TID 0000.0001) 
(PID.TID 0000.0001)  exf_GetFFieldsRec: first, changed, fac:   T   F   0.50000000E+00
(PID.TID 0000.0001)  exf_GetFFieldsRec:      count0, count1:   1   2
(PID.TID 0000.0001) 
(PID.TID 0000.0001)  MDSREADFIELD: opening global file: qa.labsea1979
(PID.TID 0000.0001)  MDSREADFIELD: opening global file: qa.labsea1979
(PID.TID 0000.0001) 
(PID.TID 0000.0001)  exf_GetFFieldsRec: first, changed, fac:   T   F   0.50000000E+00
(PID.TID 0000.0001)  exf_GetFFieldsRec:      count0, count1:   1   2
(PID.TID 0000.0001) 
(PID.TID 0000.0001)  MDSREADFIELD: opening global file: prate.labsea1979
(PID.TID 0000.0001)  MDSREADFIELD: opening global file: prate.labsea1979
(PID.TID 0000.0001)  MDSREADFIELD: opening file: xx_atemp.0000000000.001.001.data
(PID.TID 0000.0001)  MDSREADFIELD: opening file: xx_atemp.0000000000.001.001.data
(PID.TID 0000.0001)  MDSREADFIELD: opening file: xx_aqh.0000000000.001.001.data
(PID.TID 0000.0001)  MDSREADFIELD: opening file: xx_aqh.0000000000.001.001.data
(PID.TID 0000.0001) 
(PID.TID 0000.0001)  exf_GetFFieldsRec: first, changed, fac:   T   F   0.50000000E+00
(PID.TID 0000.0001)  exf_GetFFieldsRec:      count0, count1:   1   2
(PID.TID 0000.0001) 
(PID.TID 0000.0001)  MDSREADFIELD: opening global file: fsh.labsea1979
(PID.TID 0000.0001)  MDSREADFIELD: opening global file: fsh.labsea1979
(PID.TID 0000.0001) 
(PID.TID 0000.0001)  exf_GetFFieldsRec: first, changed, fac:   T   F   0.50000000E+00
(PID.TID 0000.0001)  exf_GetFFieldsRec:      count0, count1:   1   2
(PID.TID 0000.0001) 
(PID.TID 0000.0001)  MDSREADFIELD: opening global file: flo.labsea1979
(PID.TID 0000.0001)  MDSREADFIELD: opening global file: flo.labsea1979
 cg2d: Sum(rhs),rhsMax =   1.95590071916385E-16  1.00807802167630E+00
(PID.TID 0000.0001)                    cg2d_init_res =    1.61521300655486E+00
(PID.TID 0000.0001)                       cg2d_iters =    47
(PID.TID 0000.0001)                         cg2d_res =    5.70138941994743E-14
(PID.TID 0000.0001) 
(PID.TID 0000.0001)  exf_GetFFieldsRec: first, changed, fac:   F   F   0.49863388E+00
(PID.TID 0000.0001)  exf_GetFFieldsRec:      count0, count1:   1   2
(PID.TID 0000.0001) 
(PID.TID 0000.0001) 
(PID.TID 0000.0001)  exf_GetFFieldsRec: first, changed, fac:   F   F   0.49863388E+00
(PID.TID 0000.0001)  exf_GetFFieldsRec:      count0, count1:   1   2
(PID.TID 0000.0001) 
(PID.TID 0000.0001)  MDSREADFIELD: opening file: xx_uwind.0000000000.001.001.data
(PID.TID 0000.0001)  MDSREADFIELD: opening file: xx_uwind.0000000000.001.001.data
(PID.TID 0000.0001)  MDSREADFIELD: opening file: xx_vwind.0000000000.001.001.data
(PID.TID 0000.0001)  MDSREADFIELD: opening file: xx_vwind.0000000000.001.001.data
(PID.TID 0000.0001) 
(PID.TID 0000.0001)  exf_GetFFieldsRec: first, changed, fac:   F   F   0.49863388E+00
(PID.TID 0000.0001)  exf_GetFFieldsRec:      count0, count1:   1   2
(PID.TID 0000.0001) 
(PID.TID 0000.0001) 
(PID.TID 0000.0001)  exf_GetFFieldsRec: first, changed, fac:   F   F   0.49863388E+00
(PID.TID 0000.0001)  exf_GetFFieldsRec:      count0, count1:   1   2
(PID.TID 0000.0001) 
(PID.TID 0000.0001) 
(PID.TID 0000.0001)  exf_GetFFieldsRec: first, changed, fac:   F   F   0.49863388E+00
(PID.TID 0000.0001)  exf_GetFFieldsRec:      count0, count1:   1   2
(PID.TID 0000.0001) 
(PID.TID 0000.0001)  MDSREADFIELD: opening file: xx_atemp.0000000000.001.001.data
(PID.TID 0000.0001)  MDSREADFIELD: opening file: xx_atemp.0000000000.001.001.data
(PID.TID 0000.0001)  MDSREADFIELD: opening file: xx_aqh.0000000000.001.001.data
(PID.TID 0000.0001)  MDSREADFIELD: opening file: xx_aqh.0000000000.001.001.data
(PID.TID 0000.0001) 
(PID.TID 0000.0001)  exf_GetFFieldsRec: first, changed, fac:   F   F   0.49863388E+00
(PID.TID 0000.0001)  exf_GetFFieldsRec:      count0, count1:   1   2
(PID.TID 0000.0001) 
(PID.TID 0000.0001) 
(PID.TID 0000.0001)  exf_GetFFieldsRec: first, changed, fac:   F   F   0.49863388E+00
(PID.TID 0000.0001)  exf_GetFFieldsRec:      count0, count1:   1   2
(PID.TID 0000.0001) 
 cg2d: Sum(rhs),rhsMax =   7.37474317724640E-16  1.23585471329616E+00
(PID.TID 0000.0001)                    cg2d_init_res =    3.48544561450945E-01
(PID.TID 0000.0001)                       cg2d_iters =    45
(PID.TID 0000.0001)                         cg2d_res =    6.49477568692734E-14
(PID.TID 0000.0001) 
(PID.TID 0000.0001)  exf_GetFFieldsRec: first, changed, fac:   F   F   0.49726776E+00
(PID.TID 0000.0001)  exf_GetFFieldsRec:      count0, count1:   1   2
(PID.TID 0000.0001) 
(PID.TID 0000.0001) 
(PID.TID 0000.0001)  exf_GetFFieldsRec: first, changed, fac:   F   F   0.49726776E+00
(PID.TID 0000.0001)  exf_GetFFieldsRec:      count0, count1:   1   2
(PID.TID 0000.0001) 
(PID.TID 0000.0001)  MDSREADFIELD: opening file: xx_uwind.0000000000.001.001.data
(PID.TID 0000.0001)  MDSREADFIELD: opening file: xx_uwind.0000000000.001.001.data
(PID.TID 0000.0001)  MDSREADFIELD: opening file: xx_vwind.0000000000.001.001.data
(PID.TID 0000.0001)  MDSREADFIELD: opening file: xx_vwind.0000000000.001.001.data
(PID.TID 0000.0001) 
(PID.TID 0000.0001)  exf_GetFFieldsRec: first, changed, fac:   F   F   0.49726776E+00
(PID.TID 0000.0001)  exf_GetFFieldsRec:      count0, count1:   1   2
(PID.TID 0000.0001) 
(PID.TID 0000.0001) 
(PID.TID 0000.0001)  exf_GetFFieldsRec: first, changed, fac:   F   F   0.49726776E+00
(PID.TID 0000.0001)  exf_GetFFieldsRec:      count0, count1:   1   2
(PID.TID 0000.0001) 
(PID.TID 0000.0001) 
(PID.TID 0000.0001)  exf_GetFFieldsRec: first, changed, fac:   F   F   0.49726776E+00
(PID.TID 0000.0001)  exf_GetFFieldsRec:      count0, count1:   1   2
(PID.TID 0000.0001) 
(PID.TID 0000.0001)  MDSREADFIELD: opening file: xx_atemp.0000000000.001.001.data
(PID.TID 0000.0001)  MDSREADFIELD: opening file: xx_atemp.0000000000.001.001.data
(PID.TID 0000.0001)  MDSREADFIELD: opening file: xx_aqh.0000000000.001.001.data
(PID.TID 0000.0001)  MDSREADFIELD: opening file: xx_aqh.0000000000.001.001.data
(PID.TID 0000.0001) 
(PID.TID 0000.0001)  exf_GetFFieldsRec: first, changed, fac:   F   F   0.49726776E+00
(PID.TID 0000.0001)  exf_GetFFieldsRec:      count0, count1:   1   2
(PID.TID 0000.0001) 
(PID.TID 0000.0001) 
(PID.TID 0000.0001)  exf_GetFFieldsRec: first, changed, fac:   F   F   0.49726776E+00
(PID.TID 0000.0001)  exf_GetFFieldsRec:      count0, count1:   1   2
(PID.TID 0000.0001) 
 cg2d: Sum(rhs),rhsMax =   6.20553955443803E-15  1.25438452343302E+00
(PID.TID 0000.0001)                    cg2d_init_res =    2.36078257971889E-01
(PID.TID 0000.0001)                       cg2d_iters =    45
(PID.TID 0000.0001)                         cg2d_res =    6.62546240702124E-14
(PID.TID 0000.0001) 
(PID.TID 0000.0001)  exf_GetFFieldsRec: first, changed, fac:   F   F   0.49590164E+00
(PID.TID 0000.0001)  exf_GetFFieldsRec:      count0, count1:   1   2
(PID.TID 0000.0001) 
(PID.TID 0000.0001) 
(PID.TID 0000.0001)  exf_GetFFieldsRec: first, changed, fac:   F   F   0.49590164E+00
(PID.TID 0000.0001)  exf_GetFFieldsRec:      count0, count1:   1   2
(PID.TID 0000.0001) 
(PID.TID 0000.0001)  MDSREADFIELD: opening file: xx_uwind.0000000000.001.001.data
(PID.TID 0000.0001)  MDSREADFIELD: opening file: xx_uwind.0000000000.001.001.data
(PID.TID 0000.0001)  MDSREADFIELD: opening file: xx_vwind.0000000000.001.001.data
(PID.TID 0000.0001)  MDSREADFIELD: opening file: xx_vwind.0000000000.001.001.data
(PID.TID 0000.0001) 
(PID.TID 0000.0001)  exf_GetFFieldsRec: first, changed, fac:   F   F   0.49590164E+00
(PID.TID 0000.0001)  exf_GetFFieldsRec:      count0, count1:   1   2
(PID.TID 0000.0001) 
(PID.TID 0000.0001) 
(PID.TID 0000.0001)  exf_GetFFieldsRec: first, changed, fac:   F   F   0.49590164E+00
(PID.TID 0000.0001)  exf_GetFFieldsRec:      count0, count1:   1   2
(PID.TID 0000.0001) 
(PID.TID 0000.0001) 
(PID.TID 0000.0001)  exf_GetFFieldsRec: first, changed, fac:   F   F   0.49590164E+00
(PID.TID 0000.0001)  exf_GetFFieldsRec:      count0, count1:   1   2
(PID.TID 0000.0001) 
(PID.TID 0000.0001)  MDSREADFIELD: opening file: xx_atemp.0000000000.001.001.data
(PID.TID 0000.0001)  MDSREADFIELD: opening file: xx_atemp.0000000000.001.001.data
(PID.TID 0000.0001)  MDSREADFIELD: opening file: xx_aqh.0000000000.001.001.data
(PID.TID 0000.0001)  MDSREADFIELD: opening file: xx_aqh.0000000000.001.001.data
(PID.TID 0000.0001) 
(PID.TID 0000.0001)  exf_GetFFieldsRec: first, changed, fac:   F   F   0.49590164E+00
(PID.TID 0000.0001)  exf_GetFFieldsRec:      count0, count1:   1   2
(PID.TID 0000.0001) 
(PID.TID 0000.0001) 
(PID.TID 0000.0001)  exf_GetFFieldsRec: first, changed, fac:   F   F   0.49590164E+00
(PID.TID 0000.0001)  exf_GetFFieldsRec:      count0, count1:   1   2
(PID.TID 0000.0001) 
 cg2d: Sum(rhs),rhsMax =   3.20620266447413E-15  1.25494322187447E+00
(PID.TID 0000.0001)                    cg2d_init_res =    1.82553144014713E-01
(PID.TID 0000.0001)                       cg2d_iters =    45
(PID.TID 0000.0001)                         cg2d_res =    5.12415163303431E-14
(PID.TID 0000.0001)  MDSREADVECTOR: opening file: tapelev2_1_the_main_loop_gsnm1.it0000.001.001.data
(PID.TID 0000.0001)  MDS_READ_RL_VEC: irec =  00000001   00015456
(PID.TID 0000.0001)  MDSREADVECTOR: opening file: tapelev2_2_the_main_loop_gtnm1.it0000.001.001.data
(PID.TID 0000.0001)  MDS_READ_RL_VEC: irec =  00000001   00015456
(PID.TID 0000.0001)  MDSREADVECTOR: opening file: tapelev2_3_the_main_loop_gunm1.it0000.001.001.data
(PID.TID 0000.0001)  MDS_READ_RL_VEC: irec =  00000001   00015456
(PID.TID 0000.0001)  MDSREADVECTOR: opening file: tapelev2_4_the_main_loop_gvnm1.it0000.001.001.data
(PID.TID 0000.0001)  MDS_READ_RL_VEC: irec =  00000001   00015456
(PID.TID 0000.0001)  MDSREADVECTOR: opening file: tapelev2_5_the_main_loop_theta.it0000.001.001.data
(PID.TID 0000.0001)  MDS_READ_RL_VEC: irec =  00000001   00015456
(PID.TID 0000.0001)  MDSREADVECTOR: opening file: tapelev2_6_the_main_loop_salt.it0000.001.001.data
(PID.TID 0000.0001)  MDS_READ_RL_VEC: irec =  00000001   00015456
(PID.TID 0000.0001)  MDSREADVECTOR: opening file: tapelev2_7_the_main_loop_uvel.it0000.001.001.data
(PID.TID 0000.0001)  MDS_READ_RL_VEC: irec =  00000001   00015456
(PID.TID 0000.0001)  MDSREADVECTOR: opening file: tapelev2_8_the_main_loop_vvel.it0000.001.001.data
(PID.TID 0000.0001)  MDS_READ_RL_VEC: irec =  00000001   00015456
(PID.TID 0000.0001)  MDSREADVECTOR: opening file: tapelev2_9_the_main_loop_wvel.it0000.001.001.data
(PID.TID 0000.0001)  MDS_READ_RL_VEC: irec =  00000001   00015456
(PID.TID 0000.0001)  MDSREADVECTOR: opening file: tapelev2_10_the_main_loop_etan.it0000.001.001.data
(PID.TID 0000.0001)  MDS_READ_RL_VEC: irec =  00000001   00000672
(PID.TID 0000.0001)  MDSREADVECTOR: opening file: tapelev2_11_the_main_loop_gu.it0000.001.001.data
(PID.TID 0000.0001)  MDS_READ_RL_VEC: irec =  00000001   00015456
(PID.TID 0000.0001)  MDSREADVECTOR: opening file: tapelev2_12_the_main_loop_gv.it0000.001.001.data
(PID.TID 0000.0001)  MDS_READ_RL_VEC: irec =  00000001   00015456
(PID.TID 0000.0001)  MDSREADVECTOR: opening file: tapelev2_13_the_main_loop_uveld.it0000.001.001.data
(PID.TID 0000.0001)  MDS_READ_RL_VEC: irec =  00000001   00015456
(PID.TID 0000.0001)  MDSREADVECTOR: opening file: tapelev2_14_the_main_loop_vveld.it0000.001.001.data
(PID.TID 0000.0001)  MDS_READ_RL_VEC: irec =  00000001   00015456
(PID.TID 0000.0001)  MDSREADVECTOR: opening file: tapelev2_15_the_main_loop_etanm1.it0000.001.001.data
(PID.TID 0000.0001)  MDS_READ_RL_VEC: irec =  00000001   00000672
(PID.TID 0000.0001)  MDSREADVECTOR: opening file: tapelev2_16_the_main_loop_unm1.it0000.001.001.data
(PID.TID 0000.0001)  MDS_READ_RL_VEC: irec =  00000001   00015456
(PID.TID 0000.0001)  MDSREADVECTOR: opening file: tapelev2_17_the_main_loop_vnm1.it0000.001.001.data
(PID.TID 0000.0001)  MDS_READ_RL_VEC: irec =  00000001   00015456
(PID.TID 0000.0001)  MDSREADVECTOR: opening file: tapelev2_18_the_main_loop_gucd.it0000.001.001.data
(PID.TID 0000.0001)  MDS_READ_RL_VEC: irec =  00000001   00015456
(PID.TID 0000.0001)  MDSREADVECTOR: opening file: tapelev2_19_the_main_loop_gvcd.it0000.001.001.data
(PID.TID 0000.0001)  MDS_READ_RL_VEC: irec =  00000001   00015456
(PID.TID 0000.0001)  MDSREADVECTOR: opening file: tapelev2_20_the_main_loop_etah.it0000.001.001.data
(PID.TID 0000.0001)  MDS_READ_RL_VEC: irec =  00000001   00000672
(PID.TID 0000.0001)  MDSREADVECTOR: opening file: tapelev2_21_the_main_loop_hdivflow.it0000.001.001.data
(PID.TID 0000.0001)  MDS_READ_RL_VEC: irec =  00000001   00000672
(PID.TID 0000.0001)  MDSREADVECTOR: opening file: tapelev2_22_the_main_loop_aqh0.it0000.001.001.data
(PID.TID 0000.0001)  MDS_READ_RL_VEC: irec =  00000001   00000672
(PID.TID 0000.0001)  MDSREADVECTOR: opening file: tapelev2_23_the_main_loop_aqh1.it0000.001.001.data
(PID.TID 0000.0001)  MDS_READ_RL_VEC: irec =  00000001   00000672
(PID.TID 0000.0001)  MDSREADVECTOR: opening file: tapelev2_24_the_main_loop_atemp0.it0000.001.001.data
(PID.TID 0000.0001)  MDS_READ_RL_VEC: irec =  00000001   00000672
(PID.TID 0000.0001)  MDSREADVECTOR: opening file: tapelev2_25_the_main_loop_atemp1.it0000.001.001.data
(PID.TID 0000.0001)  MDS_READ_RL_VEC: irec =  00000001   00000672
(PID.TID 0000.0001)  MDSREADVECTOR: opening file: tapelev2_26_the_main_loop_precip0.it0000.001.001.data
(PID.TID 0000.0001)  MDS_READ_RL_VEC: irec =  00000001   00000672
(PID.TID 0000.0001)  MDSREADVECTOR: opening file: tapelev2_27_the_main_loop_precip1.it0000.001.001.data
(PID.TID 0000.0001)  MDS_READ_RL_VEC: irec =  00000001   00000672
(PID.TID 0000.0001)  MDSREADVECTOR: opening file: tapelev2_28_the_main_loop_lwflux0.it0000.001.001.data
(PID.TID 0000.0001)  MDS_READ_RL_VEC: irec =  00000001   00000672
(PID.TID 0000.0001)  MDSREADVECTOR: opening file: tapelev2_29_the_main_loop_lwflux1.it0000.001.001.data
(PID.TID 0000.0001)  MDS_READ_RL_VEC: irec =  00000001   00000672
(PID.TID 0000.0001)  MDSREADVECTOR: opening file: tapelev2_30_the_main_loop_swflux0.it0000.001.001.data
(PID.TID 0000.0001)  MDS_READ_RL_VEC: irec =  00000001   00000672
(PID.TID 0000.0001)  MDSREADVECTOR: opening file: tapelev2_31_the_main_loop_swflux1.it0000.001.001.data
(PID.TID 0000.0001)  MDS_READ_RL_VEC: irec =  00000001   00000672
(PID.TID 0000.0001)  MDSREADVECTOR: opening file: tapelev2_32_the_main_loop_evap.it0000.001.001.data
(PID.TID 0000.0001)  MDS_READ_RL_VEC: irec =  00000001   00000672
(PID.TID 0000.0001)  MDSREADVECTOR: opening file: tapelev2_33_the_main_loop_uwind0.it0000.001.001.data
(PID.TID 0000.0001)  MDS_READ_RL_VEC: irec =  00000001   00000672
(PID.TID 0000.0001)  MDSREADVECTOR: opening file: tapelev2_34_the_main_loop_uwind1.it0000.001.001.data
(PID.TID 0000.0001)  MDS_READ_RL_VEC: irec =  00000001   00000672
(PID.TID 0000.0001)  MDSREADVECTOR: opening file: tapelev2_35_the_main_loop_vwind0.it0000.001.001.data
(PID.TID 0000.0001)  MDS_READ_RL_VEC: irec =  00000001   00000672
(PID.TID 0000.0001)  MDSREADVECTOR: opening file: tapelev2_36_the_main_loop_vwind1.it0000.001.001.data
(PID.TID 0000.0001)  MDS_READ_RL_VEC: irec =  00000001   00000672
(PID.TID 0000.0001) 
(PID.TID 0000.0001)  exf_GetFFieldsRec: first, changed, fac:   T   F   0.50000000E+00
(PID.TID 0000.0001)  exf_GetFFieldsRec:      count0, count1:   1   2
(PID.TID 0000.0001) 
(PID.TID 0000.0001)  MDSREADFIELD: opening global file: u10m.labsea79
(PID.TID 0000.0001)  MDSREADFIELD: opening global file: u10m.labsea79
(PID.TID 0000.0001) 
(PID.TID 0000.0001)  exf_GetFFieldsRec: first, changed, fac:   T   F   0.50000000E+00
(PID.TID 0000.0001)  exf_GetFFieldsRec:      count0, count1:   1   2
(PID.TID 0000.0001) 
(PID.TID 0000.0001)  MDSREADFIELD: opening global file: v10m.labsea79
(PID.TID 0000.0001)  MDSREADFIELD: opening global file: v10m.labsea79
(PID.TID 0000.0001)  MDSREADFIELD: opening file: xx_uwind.0000000000.001.001.data
(PID.TID 0000.0001)  MDSREADFIELD: opening file: xx_uwind.0000000000.001.001.data
(PID.TID 0000.0001)  MDSREADFIELD: opening file: xx_vwind.0000000000.001.001.data
(PID.TID 0000.0001)  MDSREADFIELD: opening file: xx_vwind.0000000000.001.001.data
(PID.TID 0000.0001) 
(PID.TID 0000.0001)  exf_GetFFieldsRec: first, changed, fac:   T   F   0.50000000E+00
(PID.TID 0000.0001)  exf_GetFFieldsRec:      count0, count1:   1   2
(PID.TID 0000.0001) 
(PID.TID 0000.0001)  MDSREADFIELD: opening global file: tair.labsea1979
(PID.TID 0000.0001)  MDSREADFIELD: opening global file: tair.labsea1979
(PID.TID 0000.0001) 
(PID.TID 0000.0001)  exf_GetFFieldsRec: first, changed, fac:   T   F   0.50000000E+00
(PID.TID 0000.0001)  exf_GetFFieldsRec:      count0, count1:   1   2
(PID.TID 0000.0001) 
(PID.TID 0000.0001)  MDSREADFIELD: opening global file: qa.labsea1979
(PID.TID 0000.0001)  MDSREADFIELD: opening global file: qa.labsea1979
(PID.TID 0000.0001) 
(PID.TID 0000.0001)  exf_GetFFieldsRec: first, changed, fac:   T   F   0.50000000E+00
(PID.TID 0000.0001)  exf_GetFFieldsRec:      count0, count1:   1   2
(PID.TID 0000.0001) 
(PID.TID 0000.0001)  MDSREADFIELD: opening global file: prate.labsea1979
(PID.TID 0000.0001)  MDSREADFIELD: opening global file: prate.labsea1979
(PID.TID 0000.0001)  MDSREADFIELD: opening file: xx_atemp.0000000000.001.001.data
(PID.TID 0000.0001)  MDSREADFIELD: opening file: xx_atemp.0000000000.001.001.data
(PID.TID 0000.0001)  MDSREADFIELD: opening file: xx_aqh.0000000000.001.001.data
(PID.TID 0000.0001)  MDSREADFIELD: opening file: xx_aqh.0000000000.001.001.data
(PID.TID 0000.0001) 
(PID.TID 0000.0001)  exf_GetFFieldsRec: first, changed, fac:   T   F   0.50000000E+00
(PID.TID 0000.0001)  exf_GetFFieldsRec:      count0, count1:   1   2
(PID.TID 0000.0001) 
(PID.TID 0000.0001)  MDSREADFIELD: opening global file: fsh.labsea1979
(PID.TID 0000.0001)  MDSREADFIELD: opening global file: fsh.labsea1979
(PID.TID 0000.0001) 
(PID.TID 0000.0001)  exf_GetFFieldsRec: first, changed, fac:   T   F   0.50000000E+00
(PID.TID 0000.0001)  exf_GetFFieldsRec:      count0, count1:   1   2
(PID.TID 0000.0001) 
(PID.TID 0000.0001)  MDSREADFIELD: opening global file: flo.labsea1979
(PID.TID 0000.0001)  MDSREADFIELD: opening global file: flo.labsea1979
 cg2d: Sum(rhs),rhsMax =   1.95590071916385E-16  1.00807802167630E+00
(PID.TID 0000.0001)                    cg2d_init_res =    1.61521300655486E+00
(PID.TID 0000.0001)                       cg2d_iters =    47
(PID.TID 0000.0001)                         cg2d_res =    5.70138941994743E-14
(PID.TID 0000.0001) 
(PID.TID 0000.0001)  exf_GetFFieldsRec: first, changed, fac:   F   F   0.49863388E+00
(PID.TID 0000.0001)  exf_GetFFieldsRec:      count0, count1:   1   2
(PID.TID 0000.0001) 
(PID.TID 0000.0001) 
(PID.TID 0000.0001)  exf_GetFFieldsRec: first, changed, fac:   F   F   0.49863388E+00
(PID.TID 0000.0001)  exf_GetFFieldsRec:      count0, count1:   1   2
(PID.TID 0000.0001) 
(PID.TID 0000.0001)  MDSREADFIELD: opening file: xx_uwind.0000000000.001.001.data
(PID.TID 0000.0001)  MDSREADFIELD: opening file: xx_uwind.0000000000.001.001.data
(PID.TID 0000.0001)  MDSREADFIELD: opening file: xx_vwind.0000000000.001.001.data
(PID.TID 0000.0001)  MDSREADFIELD: opening file: xx_vwind.0000000000.001.001.data
(PID.TID 0000.0001) 
(PID.TID 0000.0001)  exf_GetFFieldsRec: first, changed, fac:   F   F   0.49863388E+00
(PID.TID 0000.0001)  exf_GetFFieldsRec:      count0, count1:   1   2
(PID.TID 0000.0001) 
(PID.TID 0000.0001) 
(PID.TID 0000.0001)  exf_GetFFieldsRec: first, changed, fac:   F   F   0.49863388E+00
(PID.TID 0000.0001)  exf_GetFFieldsRec:      count0, count1:   1   2
(PID.TID 0000.0001) 
(PID.TID 0000.0001) 
(PID.TID 0000.0001)  exf_GetFFieldsRec: first, changed, fac:   F   F   0.49863388E+00
(PID.TID 0000.0001)  exf_GetFFieldsRec:      count0, count1:   1   2
(PID.TID 0000.0001) 
(PID.TID 0000.0001)  MDSREADFIELD: opening file: xx_atemp.0000000000.001.001.data
(PID.TID 0000.0001)  MDSREADFIELD: opening file: xx_atemp.0000000000.001.001.data
(PID.TID 0000.0001)  MDSREADFIELD: opening file: xx_aqh.0000000000.001.001.data
(PID.TID 0000.0001)  MDSREADFIELD: opening file: xx_aqh.0000000000.001.001.data
(PID.TID 0000.0001) 
(PID.TID 0000.0001)  exf_GetFFieldsRec: first, changed, fac:   F   F   0.49863388E+00
(PID.TID 0000.0001)  exf_GetFFieldsRec:      count0, count1:   1   2
(PID.TID 0000.0001) 
(PID.TID 0000.0001) 
(PID.TID 0000.0001)  exf_GetFFieldsRec: first, changed, fac:   F   F   0.49863388E+00
(PID.TID 0000.0001)  exf_GetFFieldsRec:      count0, count1:   1   2
(PID.TID 0000.0001) 
 cg2d: Sum(rhs),rhsMax =   7.37474317724640E-16  1.23585471329616E+00
(PID.TID 0000.0001)                    cg2d_init_res =    3.48544561450945E-01
(PID.TID 0000.0001)                       cg2d_iters =    45
(PID.TID 0000.0001)                         cg2d_res =    6.49477568692734E-14
(PID.TID 0000.0001) 
(PID.TID 0000.0001)  exf_GetFFieldsRec: first, changed, fac:   F   F   0.49726776E+00
(PID.TID 0000.0001)  exf_GetFFieldsRec:      count0, count1:   1   2
(PID.TID 0000.0001) 
(PID.TID 0000.0001) 
(PID.TID 0000.0001)  exf_GetFFieldsRec: first, changed, fac:   F   F   0.49726776E+00
(PID.TID 0000.0001)  exf_GetFFieldsRec:      count0, count1:   1   2
(PID.TID 0000.0001) 
(PID.TID 0000.0001)  MDSREADFIELD: opening file: xx_uwind.0000000000.001.001.data
(PID.TID 0000.0001)  MDSREADFIELD: opening file: xx_uwind.0000000000.001.001.data
(PID.TID 0000.0001)  MDSREADFIELD: opening file: xx_vwind.0000000000.001.001.data
(PID.TID 0000.0001)  MDSREADFIELD: opening file: xx_vwind.0000000000.001.001.data
(PID.TID 0000.0001) 
(PID.TID 0000.0001)  exf_GetFFieldsRec: first, changed, fac:   F   F   0.49726776E+00
(PID.TID 0000.0001)  exf_GetFFieldsRec:      count0, count1:   1   2
(PID.TID 0000.0001) 
(PID.TID 0000.0001) 
(PID.TID 0000.0001)  exf_GetFFieldsRec: first, changed, fac:   F   F   0.49726776E+00
(PID.TID 0000.0001)  exf_GetFFieldsRec:      count0, count1:   1   2
(PID.TID 0000.0001) 
(PID.TID 0000.0001) 
(PID.TID 0000.0001)  exf_GetFFieldsRec: first, changed, fac:   F   F   0.49726776E+00
(PID.TID 0000.0001)  exf_GetFFieldsRec:      count0, count1:   1   2
(PID.TID 0000.0001) 
(PID.TID 0000.0001)  MDSREADFIELD: opening file: xx_atemp.0000000000.001.001.data
(PID.TID 0000.0001)  MDSREADFIELD: opening file: xx_atemp.0000000000.001.001.data
(PID.TID 0000.0001)  MDSREADFIELD: opening file: xx_aqh.0000000000.001.001.data
(PID.TID 0000.0001)  MDSREADFIELD: opening file: xx_aqh.0000000000.001.001.data
(PID.TID 0000.0001) 
(PID.TID 0000.0001)  exf_GetFFieldsRec: first, changed, fac:   F   F   0.49726776E+00
(PID.TID 0000.0001)  exf_GetFFieldsRec:      count0, count1:   1   2
(PID.TID 0000.0001) 
(PID.TID 0000.0001) 
(PID.TID 0000.0001)  exf_GetFFieldsRec: first, changed, fac:   F   F   0.49726776E+00
(PID.TID 0000.0001)  exf_GetFFieldsRec:      count0, count1:   1   2
(PID.TID 0000.0001) 
 cg2d: Sum(rhs),rhsMax =   6.20553955443803E-15  1.25438452343302E+00
(PID.TID 0000.0001)                    cg2d_init_res =    2.36078257971889E-01
(PID.TID 0000.0001)                       cg2d_iters =    45
(PID.TID 0000.0001)                         cg2d_res =    6.62546240702124E-14
(PID.TID 0000.0001) 
(PID.TID 0000.0001)  exf_GetFFieldsRec: first, changed, fac:   F   F   0.49590164E+00
(PID.TID 0000.0001)  exf_GetFFieldsRec:      count0, count1:   1   2
(PID.TID 0000.0001) 
(PID.TID 0000.0001) 
(PID.TID 0000.0001)  exf_GetFFieldsRec: first, changed, fac:   F   F   0.49590164E+00
(PID.TID 0000.0001)  exf_GetFFieldsRec:      count0, count1:   1   2
(PID.TID 0000.0001) 
(PID.TID 0000.0001)  MDSREADFIELD: opening file: xx_uwind.0000000000.001.001.data
(PID.TID 0000.0001)  MDSREADFIELD: opening file: xx_uwind.0000000000.001.001.data
(PID.TID 0000.0001)  MDSREADFIELD: opening file: xx_vwind.0000000000.001.001.data
(PID.TID 0000.0001)  MDSREADFIELD: opening file: xx_vwind.0000000000.001.001.data
(PID.TID 0000.0001) 
(PID.TID 0000.0001)  exf_GetFFieldsRec: first, changed, fac:   F   F   0.49590164E+00
(PID.TID 0000.0001)  exf_GetFFieldsRec:      count0, count1:   1   2
(PID.TID 0000.0001) 
(PID.TID 0000.0001) 
(PID.TID 0000.0001)  exf_GetFFieldsRec: first, changed, fac:   F   F   0.49590164E+00
(PID.TID 0000.0001)  exf_GetFFieldsRec:      count0, count1:   1   2
(PID.TID 0000.0001) 
(PID.TID 0000.0001) 
(PID.TID 0000.0001)  exf_GetFFieldsRec: first, changed, fac:   F   F   0.49590164E+00
(PID.TID 0000.0001)  exf_GetFFieldsRec:      count0, count1:   1   2
(PID.TID 0000.0001) 
(PID.TID 0000.0001)  MDSREADFIELD: opening file: xx_atemp.0000000000.001.001.data
(PID.TID 0000.0001)  MDSREADFIELD: opening file: xx_atemp.0000000000.001.001.data
(PID.TID 0000.0001)  MDSREADFIELD: opening file: xx_aqh.0000000000.001.001.data
(PID.TID 0000.0001)  MDSREADFIELD: opening file: xx_aqh.0000000000.001.001.data
(PID.TID 0000.0001) 
(PID.TID 0000.0001)  exf_GetFFieldsRec: first, changed, fac:   F   F   0.49590164E+00
(PID.TID 0000.0001)  exf_GetFFieldsRec:      count0, count1:   1   2
(PID.TID 0000.0001) 
(PID.TID 0000.0001) 
(PID.TID 0000.0001)  exf_GetFFieldsRec: first, changed, fac:   F   F   0.49590164E+00
(PID.TID 0000.0001)  exf_GetFFieldsRec:      count0, count1:   1   2
(PID.TID 0000.0001) 
 cg2d: Sum(rhs),rhsMax =   3.20620266447413E-15  1.25494322187447E+00
(PID.TID 0000.0001)                    cg2d_init_res =    1.82553144014713E-01
(PID.TID 0000.0001)                       cg2d_iters =    45
(PID.TID 0000.0001)                         cg2d_res =    5.12415163303431E-14
(PID.TID 0000.0001)  MDSREADVECTOR: opening file: tapelev2_1_the_main_loop_gsnm1.it0000.001.001.data
(PID.TID 0000.0001)  MDS_READ_RL_VEC: irec =  00000001   00015456
(PID.TID 0000.0001)  MDSREADVECTOR: opening file: tapelev2_2_the_main_loop_gtnm1.it0000.001.001.data
(PID.TID 0000.0001)  MDS_READ_RL_VEC: irec =  00000001   00015456
(PID.TID 0000.0001)  MDSREADVECTOR: opening file: tapelev2_3_the_main_loop_gunm1.it0000.001.001.data
(PID.TID 0000.0001)  MDS_READ_RL_VEC: irec =  00000001   00015456
(PID.TID 0000.0001)  MDSREADVECTOR: opening file: tapelev2_4_the_main_loop_gvnm1.it0000.001.001.data
(PID.TID 0000.0001)  MDS_READ_RL_VEC: irec =  00000001   00015456
(PID.TID 0000.0001)  MDSREADVECTOR: opening file: tapelev2_5_the_main_loop_theta.it0000.001.001.data
(PID.TID 0000.0001)  MDS_READ_RL_VEC: irec =  00000001   00015456
(PID.TID 0000.0001)  MDSREADVECTOR: opening file: tapelev2_6_the_main_loop_salt.it0000.001.001.data
(PID.TID 0000.0001)  MDS_READ_RL_VEC: irec =  00000001   00015456
(PID.TID 0000.0001)  MDSREADVECTOR: opening file: tapelev2_7_the_main_loop_uvel.it0000.001.001.data
(PID.TID 0000.0001)  MDS_READ_RL_VEC: irec =  00000001   00015456
(PID.TID 0000.0001)  MDSREADVECTOR: opening file: tapelev2_8_the_main_loop_vvel.it0000.001.001.data
(PID.TID 0000.0001)  MDS_READ_RL_VEC: irec =  00000001   00015456
(PID.TID 0000.0001)  MDSREADVECTOR: opening file: tapelev2_9_the_main_loop_wvel.it0000.001.001.data
(PID.TID 0000.0001)  MDS_READ_RL_VEC: irec =  00000001   00015456
(PID.TID 0000.0001)  MDSREADVECTOR: opening file: tapelev2_10_the_main_loop_etan.it0000.001.001.data
(PID.TID 0000.0001)  MDS_READ_RL_VEC: irec =  00000001   00000672
(PID.TID 0000.0001)  MDSREADVECTOR: opening file: tapelev2_11_the_main_loop_gu.it0000.001.001.data
(PID.TID 0000.0001)  MDS_READ_RL_VEC: irec =  00000001   00015456
(PID.TID 0000.0001)  MDSREADVECTOR: opening file: tapelev2_12_the_main_loop_gv.it0000.001.001.data
(PID.TID 0000.0001)  MDS_READ_RL_VEC: irec =  00000001   00015456
(PID.TID 0000.0001)  MDSREADVECTOR: opening file: tapelev2_13_the_main_loop_uveld.it0000.001.001.data
(PID.TID 0000.0001)  MDS_READ_RL_VEC: irec =  00000001   00015456
(PID.TID 0000.0001)  MDSREADVECTOR: opening file: tapelev2_14_the_main_loop_vveld.it0000.001.001.data
(PID.TID 0000.0001)  MDS_READ_RL_VEC: irec =  00000001   00015456
(PID.TID 0000.0001)  MDSREADVECTOR: opening file: tapelev2_15_the_main_loop_etanm1.it0000.001.001.data
(PID.TID 0000.0001)  MDS_READ_RL_VEC: irec =  00000001   00000672
(PID.TID 0000.0001)  MDSREADVECTOR: opening file: tapelev2_16_the_main_loop_unm1.it0000.001.001.data
(PID.TID 0000.0001)  MDS_READ_RL_VEC: irec =  00000001   00015456
(PID.TID 0000.0001)  MDSREADVECTOR: opening file: tapelev2_17_the_main_loop_vnm1.it0000.001.001.data
(PID.TID 0000.0001)  MDS_READ_RL_VEC: irec =  00000001   00015456
(PID.TID 0000.0001)  MDSREADVECTOR: opening file: tapelev2_18_the_main_loop_gucd.it0000.001.001.data
(PID.TID 0000.0001)  MDS_READ_RL_VEC: irec =  00000001   00015456
(PID.TID 0000.0001)  MDSREADVECTOR: opening file: tapelev2_19_the_main_loop_gvcd.it0000.001.001.data
(PID.TID 0000.0001)  MDS_READ_RL_VEC: irec =  00000001   00015456
(PID.TID 0000.0001)  MDSREADVECTOR: opening file: tapelev2_20_the_main_loop_etah.it0000.001.001.data
(PID.TID 0000.0001)  MDS_READ_RL_VEC: irec =  00000001   00000672
(PID.TID 0000.0001)  MDSREADVECTOR: opening file: tapelev2_21_the_main_loop_hdivflow.it0000.001.001.data
(PID.TID 0000.0001)  MDS_READ_RL_VEC: irec =  00000001   00000672
(PID.TID 0000.0001)  MDSREADVECTOR: opening file: tapelev2_22_the_main_loop_aqh0.it0000.001.001.data
(PID.TID 0000.0001)  MDS_READ_RL_VEC: irec =  00000001   00000672
(PID.TID 0000.0001)  MDSREADVECTOR: opening file: tapelev2_23_the_main_loop_aqh1.it0000.001.001.data
(PID.TID 0000.0001)  MDS_READ_RL_VEC: irec =  00000001   00000672
(PID.TID 0000.0001)  MDSREADVECTOR: opening file: tapelev2_24_the_main_loop_atemp0.it0000.001.001.data
(PID.TID 0000.0001)  MDS_READ_RL_VEC: irec =  00000001   00000672
(PID.TID 0000.0001)  MDSREADVECTOR: opening file: tapelev2_25_the_main_loop_atemp1.it0000.001.001.data
(PID.TID 0000.0001)  MDS_READ_RL_VEC: irec =  00000001   00000672
(PID.TID 0000.0001)  MDSREADVECTOR: opening file: tapelev2_26_the_main_loop_precip0.it0000.001.001.data
(PID.TID 0000.0001)  MDS_READ_RL_VEC: irec =  00000001   00000672
(PID.TID 0000.0001)  MDSREADVECTOR: opening file: tapelev2_27_the_main_loop_precip1.it0000.001.001.data
(PID.TID 0000.0001)  MDS_READ_RL_VEC: irec =  00000001   00000672
(PID.TID 0000.0001)  MDSREADVECTOR: opening file: tapelev2_28_the_main_loop_lwflux0.it0000.001.001.data
(PID.TID 0000.0001)  MDS_READ_RL_VEC: irec =  00000001   00000672
(PID.TID 0000.0001)  MDSREADVECTOR: opening file: tapelev2_29_the_main_loop_lwflux1.it0000.001.001.data
(PID.TID 0000.0001)  MDS_READ_RL_VEC: irec =  00000001   00000672
(PID.TID 0000.0001)  MDSREADVECTOR: opening file: tapelev2_30_the_main_loop_swflux0.it0000.001.001.data
(PID.TID 0000.0001)  MDS_READ_RL_VEC: irec =  00000001   00000672
(PID.TID 0000.0001)  MDSREADVECTOR: opening file: tapelev2_31_the_main_loop_swflux1.it0000.001.001.data
(PID.TID 0000.0001)  MDS_READ_RL_VEC: irec =  00000001   00000672
(PID.TID 0000.0001)  MDSREADVECTOR: opening file: tapelev2_32_the_main_loop_evap.it0000.001.001.data
(PID.TID 0000.0001)  MDS_READ_RL_VEC: irec =  00000001   00000672
(PID.TID 0000.0001)  MDSREADVECTOR: opening file: tapelev2_33_the_main_loop_uwind0.it0000.001.001.data
(PID.TID 0000.0001)  MDS_READ_RL_VEC: irec =  00000001   00000672
(PID.TID 0000.0001)  MDSREADVECTOR: opening file: tapelev2_34_the_main_loop_uwind1.it0000.001.001.data
(PID.TID 0000.0001)  MDS_READ_RL_VEC: irec =  00000001   00000672
(PID.TID 0000.0001)  MDSREADVECTOR: opening file: tapelev2_35_the_main_loop_vwind0.it0000.001.001.data
(PID.TID 0000.0001)  MDS_READ_RL_VEC: irec =  00000001   00000672
(PID.TID 0000.0001)  MDSREADVECTOR: opening file: tapelev2_36_the_main_loop_vwind1.it0000.001.001.data
(PID.TID 0000.0001)  MDS_READ_RL_VEC: irec =  00000001   00000672
(PID.TID 0000.0001) 
(PID.TID 0000.0001)  exf_GetFFieldsRec: first, changed, fac:   T   F   0.50000000E+00
(PID.TID 0000.0001)  exf_GetFFieldsRec:      count0, count1:   1   2
(PID.TID 0000.0001) 
(PID.TID 0000.0001)  MDSREADFIELD: opening global file: u10m.labsea79
(PID.TID 0000.0001)  MDSREADFIELD: opening global file: u10m.labsea79
(PID.TID 0000.0001) 
(PID.TID 0000.0001)  exf_GetFFieldsRec: first, changed, fac:   T   F   0.50000000E+00
(PID.TID 0000.0001)  exf_GetFFieldsRec:      count0, count1:   1   2
(PID.TID 0000.0001) 
(PID.TID 0000.0001)  MDSREADFIELD: opening global file: v10m.labsea79
(PID.TID 0000.0001)  MDSREADFIELD: opening global file: v10m.labsea79
(PID.TID 0000.0001)  MDSREADFIELD: opening file: xx_uwind.0000000000.001.001.data
(PID.TID 0000.0001)  MDSREADFIELD: opening file: xx_uwind.0000000000.001.001.data
(PID.TID 0000.0001)  MDSREADFIELD: opening file: xx_vwind.0000000000.001.001.data
(PID.TID 0000.0001)  MDSREADFIELD: opening file: xx_vwind.0000000000.001.001.data
(PID.TID 0000.0001) 
(PID.TID 0000.0001)  exf_GetFFieldsRec: first, changed, fac:   T   F   0.50000000E+00
(PID.TID 0000.0001)  exf_GetFFieldsRec:      count0, count1:   1   2
(PID.TID 0000.0001) 
(PID.TID 0000.0001)  MDSREADFIELD: opening global file: tair.labsea1979
(PID.TID 0000.0001)  MDSREADFIELD: opening global file: tair.labsea1979
(PID.TID 0000.0001) 
(PID.TID 0000.0001)  exf_GetFFieldsRec: first, changed, fac:   T   F   0.50000000E+00
(PID.TID 0000.0001)  exf_GetFFieldsRec:      count0, count1:   1   2
(PID.TID 0000.0001) 
(PID.TID 0000.0001)  MDSREADFIELD: opening global file: qa.labsea1979
(PID.TID 0000.0001)  MDSREADFIELD: opening global file: qa.labsea1979
(PID.TID 0000.0001) 
(PID.TID 0000.0001)  exf_GetFFieldsRec: first, changed, fac:   T   F   0.50000000E+00
(PID.TID 0000.0001)  exf_GetFFieldsRec:      count0, count1:   1   2
(PID.TID 0000.0001) 
(PID.TID 0000.0001)  MDSREADFIELD: opening global file: prate.labsea1979
(PID.TID 0000.0001)  MDSREADFIELD: opening global file: prate.labsea1979
(PID.TID 0000.0001)  MDSREADFIELD: opening file: xx_atemp.0000000000.001.001.data
(PID.TID 0000.0001)  MDSREADFIELD: opening file: xx_atemp.0000000000.001.001.data
(PID.TID 0000.0001)  MDSREADFIELD: opening file: xx_aqh.0000000000.001.001.data
(PID.TID 0000.0001)  MDSREADFIELD: opening file: xx_aqh.0000000000.001.001.data
(PID.TID 0000.0001) 
(PID.TID 0000.0001)  exf_GetFFieldsRec: first, changed, fac:   T   F   0.50000000E+00
(PID.TID 0000.0001)  exf_GetFFieldsRec:      count0, count1:   1   2
(PID.TID 0000.0001) 
(PID.TID 0000.0001)  MDSREADFIELD: opening global file: fsh.labsea1979
(PID.TID 0000.0001)  MDSREADFIELD: opening global file: fsh.labsea1979
(PID.TID 0000.0001) 
(PID.TID 0000.0001)  exf_GetFFieldsRec: first, changed, fac:   T   F   0.50000000E+00
(PID.TID 0000.0001)  exf_GetFFieldsRec:      count0, count1:   1   2
(PID.TID 0000.0001) 
(PID.TID 0000.0001)  MDSREADFIELD: opening global file: flo.labsea1979
(PID.TID 0000.0001)  MDSREADFIELD: opening global file: flo.labsea1979
 cg2d: Sum(rhs),rhsMax =   1.95590071916385E-16  1.00807802167630E+00
(PID.TID 0000.0001)                    cg2d_init_res =    1.61521300655486E+00
(PID.TID 0000.0001)                       cg2d_iters =    47
(PID.TID 0000.0001)                         cg2d_res =    5.70138941994743E-14
(PID.TID 0000.0001) 
(PID.TID 0000.0001)  exf_GetFFieldsRec: first, changed, fac:   F   F   0.49863388E+00
(PID.TID 0000.0001)  exf_GetFFieldsRec:      count0, count1:   1   2
(PID.TID 0000.0001) 
(PID.TID 0000.0001) 
(PID.TID 0000.0001)  exf_GetFFieldsRec: first, changed, fac:   F   F   0.49863388E+00
(PID.TID 0000.0001)  exf_GetFFieldsRec:      count0, count1:   1   2
(PID.TID 0000.0001) 
(PID.TID 0000.0001)  MDSREADFIELD: opening file: xx_uwind.0000000000.001.001.data
(PID.TID 0000.0001)  MDSREADFIELD: opening file: xx_uwind.0000000000.001.001.data
(PID.TID 0000.0001)  MDSREADFIELD: opening file: xx_vwind.0000000000.001.001.data
(PID.TID 0000.0001)  MDSREADFIELD: opening file: xx_vwind.0000000000.001.001.data
(PID.TID 0000.0001) 
(PID.TID 0000.0001)  exf_GetFFieldsRec: first, changed, fac:   F   F   0.49863388E+00
(PID.TID 0000.0001)  exf_GetFFieldsRec:      count0, count1:   1   2
(PID.TID 0000.0001) 
(PID.TID 0000.0001) 
(PID.TID 0000.0001)  exf_GetFFieldsRec: first, changed, fac:   F   F   0.49863388E+00
(PID.TID 0000.0001)  exf_GetFFieldsRec:      count0, count1:   1   2
(PID.TID 0000.0001) 
(PID.TID 0000.0001) 
(PID.TID 0000.0001)  exf_GetFFieldsRec: first, changed, fac:   F   F   0.49863388E+00
(PID.TID 0000.0001)  exf_GetFFieldsRec:      count0, count1:   1   2
(PID.TID 0000.0001) 
(PID.TID 0000.0001)  MDSREADFIELD: opening file: xx_atemp.0000000000.001.001.data
(PID.TID 0000.0001)  MDSREADFIELD: opening file: xx_atemp.0000000000.001.001.data
(PID.TID 0000.0001)  MDSREADFIELD: opening file: xx_aqh.0000000000.001.001.data
(PID.TID 0000.0001)  MDSREADFIELD: opening file: xx_aqh.0000000000.001.001.data
(PID.TID 0000.0001) 
(PID.TID 0000.0001)  exf_GetFFieldsRec: first, changed, fac:   F   F   0.49863388E+00
(PID.TID 0000.0001)  exf_GetFFieldsRec:      count0, count1:   1   2
(PID.TID 0000.0001) 
(PID.TID 0000.0001) 
(PID.TID 0000.0001)  exf_GetFFieldsRec: first, changed, fac:   F   F   0.49863388E+00
(PID.TID 0000.0001)  exf_GetFFieldsRec:      count0, count1:   1   2
(PID.TID 0000.0001) 
 cg2d: Sum(rhs),rhsMax =   7.37474317724640E-16  1.23585471329616E+00
(PID.TID 0000.0001)                    cg2d_init_res =    3.48544561450945E-01
(PID.TID 0000.0001)                       cg2d_iters =    45
(PID.TID 0000.0001)                         cg2d_res =    6.49477568692734E-14
(PID.TID 0000.0001) 
(PID.TID 0000.0001)  exf_GetFFieldsRec: first, changed, fac:   F   F   0.49726776E+00
(PID.TID 0000.0001)  exf_GetFFieldsRec:      count0, count1:   1   2
(PID.TID 0000.0001) 
(PID.TID 0000.0001) 
(PID.TID 0000.0001)  exf_GetFFieldsRec: first, changed, fac:   F   F   0.49726776E+00
(PID.TID 0000.0001)  exf_GetFFieldsRec:      count0, count1:   1   2
(PID.TID 0000.0001) 
(PID.TID 0000.0001)  MDSREADFIELD: opening file: xx_uwind.0000000000.001.001.data
(PID.TID 0000.0001)  MDSREADFIELD: opening file: xx_uwind.0000000000.001.001.data
(PID.TID 0000.0001)  MDSREADFIELD: opening file: xx_vwind.0000000000.001.001.data
(PID.TID 0000.0001)  MDSREADFIELD: opening file: xx_vwind.0000000000.001.001.data
(PID.TID 0000.0001) 
(PID.TID 0000.0001)  exf_GetFFieldsRec: first, changed, fac:   F   F   0.49726776E+00
(PID.TID 0000.0001)  exf_GetFFieldsRec:      count0, count1:   1   2
(PID.TID 0000.0001) 
(PID.TID 0000.0001) 
(PID.TID 0000.0001)  exf_GetFFieldsRec: first, changed, fac:   F   F   0.49726776E+00
(PID.TID 0000.0001)  exf_GetFFieldsRec:      count0, count1:   1   2
(PID.TID 0000.0001) 
(PID.TID 0000.0001) 
(PID.TID 0000.0001)  exf_GetFFieldsRec: first, changed, fac:   F   F   0.49726776E+00
(PID.TID 0000.0001)  exf_GetFFieldsRec:      count0, count1:   1   2
(PID.TID 0000.0001) 
(PID.TID 0000.0001)  MDSREADFIELD: opening file: xx_atemp.0000000000.001.001.data
(PID.TID 0000.0001)  MDSREADFIELD: opening file: xx_atemp.0000000000.001.001.data
(PID.TID 0000.0001)  MDSREADFIELD: opening file: xx_aqh.0000000000.001.001.data
(PID.TID 0000.0001)  MDSREADFIELD: opening file: xx_aqh.0000000000.001.001.data
(PID.TID 0000.0001) 
(PID.TID 0000.0001)  exf_GetFFieldsRec: first, changed, fac:   F   F   0.49726776E+00
(PID.TID 0000.0001)  exf_GetFFieldsRec:      count0, count1:   1   2
(PID.TID 0000.0001) 
(PID.TID 0000.0001) 
(PID.TID 0000.0001)  exf_GetFFieldsRec: first, changed, fac:   F   F   0.49726776E+00
(PID.TID 0000.0001)  exf_GetFFieldsRec:      count0, count1:   1   2
(PID.TID 0000.0001) 
 cg2d: Sum(rhs),rhsMax =   6.20553955443803E-15  1.25438452343302E+00
(PID.TID 0000.0001)                    cg2d_init_res =    2.36078257971889E-01
(PID.TID 0000.0001)                       cg2d_iters =    45
(PID.TID 0000.0001)                         cg2d_res =    6.62546240702124E-14
(PID.TID 0000.0001) 
(PID.TID 0000.0001)  exf_GetFFieldsRec: first, changed, fac:   F   F   0.49590164E+00
(PID.TID 0000.0001)  exf_GetFFieldsRec:      count0, count1:   1   2
(PID.TID 0000.0001) 
(PID.TID 0000.0001) 
(PID.TID 0000.0001)  exf_GetFFieldsRec: first, changed, fac:   F   F   0.49590164E+00
(PID.TID 0000.0001)  exf_GetFFieldsRec:      count0, count1:   1   2
(PID.TID 0000.0001) 
(PID.TID 0000.0001)  MDSREADFIELD: opening file: xx_uwind.0000000000.001.001.data
(PID.TID 0000.0001)  MDSREADFIELD: opening file: xx_uwind.0000000000.001.001.data
(PID.TID 0000.0001)  MDSREADFIELD: opening file: xx_vwind.0000000000.001.001.data
(PID.TID 0000.0001)  MDSREADFIELD: opening file: xx_vwind.0000000000.001.001.data
(PID.TID 0000.0001) 
(PID.TID 0000.0001)  exf_GetFFieldsRec: first, changed, fac:   F   F   0.49590164E+00
(PID.TID 0000.0001)  exf_GetFFieldsRec:      count0, count1:   1   2
(PID.TID 0000.0001) 
(PID.TID 0000.0001) 
(PID.TID 0000.0001)  exf_GetFFieldsRec: first, changed, fac:   F   F   0.49590164E+00
(PID.TID 0000.0001)  exf_GetFFieldsRec:      count0, count1:   1   2
(PID.TID 0000.0001) 
(PID.TID 0000.0001) 
(PID.TID 0000.0001)  exf_GetFFieldsRec: first, changed, fac:   F   F   0.49590164E+00
(PID.TID 0000.0001)  exf_GetFFieldsRec:      count0, count1:   1   2
(PID.TID 0000.0001) 
(PID.TID 0000.0001)  MDSREADFIELD: opening file: xx_atemp.0000000000.001.001.data
(PID.TID 0000.0001)  MDSREADFIELD: opening file: xx_atemp.0000000000.001.001.data
(PID.TID 0000.0001)  MDSREADFIELD: opening file: xx_aqh.0000000000.001.001.data
(PID.TID 0000.0001)  MDSREADFIELD: opening file: xx_aqh.0000000000.001.001.data
(PID.TID 0000.0001) 
(PID.TID 0000.0001)  exf_GetFFieldsRec: first, changed, fac:   F   F   0.49590164E+00
(PID.TID 0000.0001)  exf_GetFFieldsRec:      count0, count1:   1   2
(PID.TID 0000.0001) 
(PID.TID 0000.0001) 
(PID.TID 0000.0001)  exf_GetFFieldsRec: first, changed, fac:   F   F   0.49590164E+00
(PID.TID 0000.0001)  exf_GetFFieldsRec:      count0, count1:   1   2
(PID.TID 0000.0001) 
 cg2d: Sum(rhs),rhsMax =   3.20620266447413E-15  1.25494322187447E+00
(PID.TID 0000.0001)                    cg2d_init_res =    1.82553144014713E-01
(PID.TID 0000.0001)                       cg2d_iters =    45
(PID.TID 0000.0001)                         cg2d_res =    5.12415163303431E-14
(PID.TID 0000.0001)  MDSREADVECTOR: opening file: tapelev2_1_the_main_loop_gsnm1.it0000.001.001.data
(PID.TID 0000.0001)  MDS_READ_RL_VEC: irec =  00000001   00015456
(PID.TID 0000.0001)  MDSREADVECTOR: opening file: tapelev2_2_the_main_loop_gtnm1.it0000.001.001.data
(PID.TID 0000.0001)  MDS_READ_RL_VEC: irec =  00000001   00015456
(PID.TID 0000.0001)  MDSREADVECTOR: opening file: tapelev2_3_the_main_loop_gunm1.it0000.001.001.data
(PID.TID 0000.0001)  MDS_READ_RL_VEC: irec =  00000001   00015456
(PID.TID 0000.0001)  MDSREADVECTOR: opening file: tapelev2_4_the_main_loop_gvnm1.it0000.001.001.data
(PID.TID 0000.0001)  MDS_READ_RL_VEC: irec =  00000001   00015456
(PID.TID 0000.0001)  MDSREADVECTOR: opening file: tapelev2_5_the_main_loop_theta.it0000.001.001.data
(PID.TID 0000.0001)  MDS_READ_RL_VEC: irec =  00000001   00015456
(PID.TID 0000.0001)  MDSREADVECTOR: opening file: tapelev2_6_the_main_loop_salt.it0000.001.001.data
(PID.TID 0000.0001)  MDS_READ_RL_VEC: irec =  00000001   00015456
(PID.TID 0000.0001)  MDSREADVECTOR: opening file: tapelev2_7_the_main_loop_uvel.it0000.001.001.data
(PID.TID 0000.0001)  MDS_READ_RL_VEC: irec =  00000001   00015456
(PID.TID 0000.0001)  MDSREADVECTOR: opening file: tapelev2_8_the_main_loop_vvel.it0000.001.001.data
(PID.TID 0000.0001)  MDS_READ_RL_VEC: irec =  00000001   00015456
(PID.TID 0000.0001)  MDSREADVECTOR: opening file: tapelev2_9_the_main_loop_wvel.it0000.001.001.data
(PID.TID 0000.0001)  MDS_READ_RL_VEC: irec =  00000001   00015456
(PID.TID 0000.0001)  MDSREADVECTOR: opening file: tapelev2_10_the_main_loop_etan.it0000.001.001.data
(PID.TID 0000.0001)  MDS_READ_RL_VEC: irec =  00000001   00000672
(PID.TID 0000.0001)  MDSREADVECTOR: opening file: tapelev2_11_the_main_loop_gu.it0000.001.001.data
(PID.TID 0000.0001)  MDS_READ_RL_VEC: irec =  00000001   00015456
(PID.TID 0000.0001)  MDSREADVECTOR: opening file: tapelev2_12_the_main_loop_gv.it0000.001.001.data
(PID.TID 0000.0001)  MDS_READ_RL_VEC: irec =  00000001   00015456
(PID.TID 0000.0001)  MDSREADVECTOR: opening file: tapelev2_13_the_main_loop_uveld.it0000.001.001.data
(PID.TID 0000.0001)  MDS_READ_RL_VEC: irec =  00000001   00015456
(PID.TID 0000.0001)  MDSREADVECTOR: opening file: tapelev2_14_the_main_loop_vveld.it0000.001.001.data
(PID.TID 0000.0001)  MDS_READ_RL_VEC: irec =  00000001   00015456
(PID.TID 0000.0001)  MDSREADVECTOR: opening file: tapelev2_15_the_main_loop_etanm1.it0000.001.001.data
(PID.TID 0000.0001)  MDS_READ_RL_VEC: irec =  00000001   00000672
(PID.TID 0000.0001)  MDSREADVECTOR: opening file: tapelev2_16_the_main_loop_unm1.it0000.001.001.data
(PID.TID 0000.0001)  MDS_READ_RL_VEC: irec =  00000001   00015456
(PID.TID 0000.0001)  MDSREADVECTOR: opening file: tapelev2_17_the_main_loop_vnm1.it0000.001.001.data
(PID.TID 0000.0001)  MDS_READ_RL_VEC: irec =  00000001   00015456
(PID.TID 0000.0001)  MDSREADVECTOR: opening file: tapelev2_18_the_main_loop_gucd.it0000.001.001.data
(PID.TID 0000.0001)  MDS_READ_RL_VEC: irec =  00000001   00015456
(PID.TID 0000.0001)  MDSREADVECTOR: opening file: tapelev2_19_the_main_loop_gvcd.it0000.001.001.data
(PID.TID 0000.0001)  MDS_READ_RL_VEC: irec =  00000001   00015456
(PID.TID 0000.0001)  MDSREADVECTOR: opening file: tapelev2_20_the_main_loop_etah.it0000.001.001.data
(PID.TID 0000.0001)  MDS_READ_RL_VEC: irec =  00000001   00000672
(PID.TID 0000.0001)  MDSREADVECTOR: opening file: tapelev2_21_the_main_loop_hdivflow.it0000.001.001.data
(PID.TID 0000.0001)  MDS_READ_RL_VEC: irec =  00000001   00000672
(PID.TID 0000.0001)  MDSREADVECTOR: opening file: tapelev2_22_the_main_loop_aqh0.it0000.001.001.data
(PID.TID 0000.0001)  MDS_READ_RL_VEC: irec =  00000001   00000672
(PID.TID 0000.0001)  MDSREADVECTOR: opening file: tapelev2_23_the_main_loop_aqh1.it0000.001.001.data
(PID.TID 0000.0001)  MDS_READ_RL_VEC: irec =  00000001   00000672
(PID.TID 0000.0001)  MDSREADVECTOR: opening file: tapelev2_24_the_main_loop_atemp0.it0000.001.001.data
(PID.TID 0000.0001)  MDS_READ_RL_VEC: irec =  00000001   00000672
(PID.TID 0000.0001)  MDSREADVECTOR: opening file: tapelev2_25_the_main_loop_atemp1.it0000.001.001.data
(PID.TID 0000.0001)  MDS_READ_RL_VEC: irec =  00000001   00000672
(PID.TID 0000.0001)  MDSREADVECTOR: opening file: tapelev2_26_the_main_loop_precip0.it0000.001.001.data
(PID.TID 0000.0001)  MDS_READ_RL_VEC: irec =  00000001   00000672
(PID.TID 0000.0001)  MDSREADVECTOR: opening file: tapelev2_27_the_main_loop_precip1.it0000.001.001.data
(PID.TID 0000.0001)  MDS_READ_RL_VEC: irec =  00000001   00000672
(PID.TID 0000.0001)  MDSREADVECTOR: opening file: tapelev2_28_the_main_loop_lwflux0.it0000.001.001.data
(PID.TID 0000.0001)  MDS_READ_RL_VEC: irec =  00000001   00000672
(PID.TID 0000.0001)  MDSREADVECTOR: opening file: tapelev2_29_the_main_loop_lwflux1.it0000.001.001.data
(PID.TID 0000.0001)  MDS_READ_RL_VEC: irec =  00000001   00000672
(PID.TID 0000.0001)  MDSREADVECTOR: opening file: tapelev2_30_the_main_loop_swflux0.it0000.001.001.data
(PID.TID 0000.0001)  MDS_READ_RL_VEC: irec =  00000001   00000672
(PID.TID 0000.0001)  MDSREADVECTOR: opening file: tapelev2_31_the_main_loop_swflux1.it0000.001.001.data
(PID.TID 0000.0001)  MDS_READ_RL_VEC: irec =  00000001   00000672
(PID.TID 0000.0001)  MDSREADVECTOR: opening file: tapelev2_32_the_main_loop_evap.it0000.001.001.data
(PID.TID 0000.0001)  MDS_READ_RL_VEC: irec =  00000001   00000672
(PID.TID 0000.0001)  MDSREADVECTOR: opening file: tapelev2_33_the_main_loop_uwind0.it0000.001.001.data
(PID.TID 0000.0001)  MDS_READ_RL_VEC: irec =  00000001   00000672
(PID.TID 0000.0001)  MDSREADVECTOR: opening file: tapelev2_34_the_main_loop_uwind1.it0000.001.001.data
(PID.TID 0000.0001)  MDS_READ_RL_VEC: irec =  00000001   00000672
(PID.TID 0000.0001)  MDSREADVECTOR: opening file: tapelev2_35_the_main_loop_vwind0.it0000.001.001.data
(PID.TID 0000.0001)  MDS_READ_RL_VEC: irec =  00000001   00000672
(PID.TID 0000.0001)  MDSREADVECTOR: opening file: tapelev2_36_the_main_loop_vwind1.it0000.001.001.data
(PID.TID 0000.0001)  MDS_READ_RL_VEC: irec =  00000001   00000672
(PID.TID 0000.0001) 
(PID.TID 0000.0001)  exf_GetFFieldsRec: first, changed, fac:   T   F   0.50000000E+00
(PID.TID 0000.0001)  exf_GetFFieldsRec:      count0, count1:   1   2
(PID.TID 0000.0001) 
(PID.TID 0000.0001)  MDSREADFIELD: opening global file: u10m.labsea79
(PID.TID 0000.0001)  MDSREADFIELD: opening global file: u10m.labsea79
(PID.TID 0000.0001) 
(PID.TID 0000.0001)  exf_GetFFieldsRec: first, changed, fac:   T   F   0.50000000E+00
(PID.TID 0000.0001)  exf_GetFFieldsRec:      count0, count1:   1   2
(PID.TID 0000.0001) 
(PID.TID 0000.0001)  MDSREADFIELD: opening global file: v10m.labsea79
(PID.TID 0000.0001)  MDSREADFIELD: opening global file: v10m.labsea79
(PID.TID 0000.0001)  MDSREADFIELD: opening file: xx_uwind.0000000000.001.001.data
(PID.TID 0000.0001)  MDSREADFIELD: opening file: xx_uwind.0000000000.001.001.data
(PID.TID 0000.0001)  MDSREADFIELD: opening file: xx_vwind.0000000000.001.001.data
(PID.TID 0000.0001)  MDSREADFIELD: opening file: xx_vwind.0000000000.001.001.data
(PID.TID 0000.0001) 
(PID.TID 0000.0001)  exf_GetFFieldsRec: first, changed, fac:   T   F   0.50000000E+00
(PID.TID 0000.0001)  exf_GetFFieldsRec:      count0, count1:   1   2
(PID.TID 0000.0001) 
(PID.TID 0000.0001)  MDSREADFIELD: opening global file: tair.labsea1979
(PID.TID 0000.0001)  MDSREADFIELD: opening global file: tair.labsea1979
(PID.TID 0000.0001) 
(PID.TID 0000.0001)  exf_GetFFieldsRec: first, changed, fac:   T   F   0.50000000E+00
(PID.TID 0000.0001)  exf_GetFFieldsRec:      count0, count1:   1   2
(PID.TID 0000.0001) 
(PID.TID 0000.0001)  MDSREADFIELD: opening global file: qa.labsea1979
(PID.TID 0000.0001)  MDSREADFIELD: opening global file: qa.labsea1979
(PID.TID 0000.0001) 
(PID.TID 0000.0001)  exf_GetFFieldsRec: first, changed, fac:   T   F   0.50000000E+00
(PID.TID 0000.0001)  exf_GetFFieldsRec:      count0, count1:   1   2
(PID.TID 0000.0001) 
(PID.TID 0000.0001)  MDSREADFIELD: opening global file: prate.labsea1979
(PID.TID 0000.0001)  MDSREADFIELD: opening global file: prate.labsea1979
(PID.TID 0000.0001)  MDSREADFIELD: opening file: xx_atemp.0000000000.001.001.data
(PID.TID 0000.0001)  MDSREADFIELD: opening file: xx_atemp.0000000000.001.001.data
(PID.TID 0000.0001)  MDSREADFIELD: opening file: xx_aqh.0000000000.001.001.data
(PID.TID 0000.0001)  MDSREADFIELD: opening file: xx_aqh.0000000000.001.001.data
(PID.TID 0000.0001) 
(PID.TID 0000.0001)  exf_GetFFieldsRec: first, changed, fac:   T   F   0.50000000E+00
(PID.TID 0000.0001)  exf_GetFFieldsRec:      count0, count1:   1   2
(PID.TID 0000.0001) 
(PID.TID 0000.0001)  MDSREADFIELD: opening global file: fsh.labsea1979
(PID.TID 0000.0001)  MDSREADFIELD: opening global file: fsh.labsea1979
(PID.TID 0000.0001) 
(PID.TID 0000.0001)  exf_GetFFieldsRec: first, changed, fac:   T   F   0.50000000E+00
(PID.TID 0000.0001)  exf_GetFFieldsRec:      count0, count1:   1   2
(PID.TID 0000.0001) 
(PID.TID 0000.0001)  MDSREADFIELD: opening global file: flo.labsea1979
(PID.TID 0000.0001)  MDSREADFIELD: opening global file: flo.labsea1979
 cg2d: Sum(rhs),rhsMax =   1.95590071916385E-16  1.00807802167630E+00
(PID.TID 0000.0001)                    cg2d_init_res =    1.61521300655486E+00
(PID.TID 0000.0001)                       cg2d_iters =    47
(PID.TID 0000.0001)                         cg2d_res =    5.70138941994743E-14
(PID.TID 0000.0001) 
(PID.TID 0000.0001)  exf_GetFFieldsRec: first, changed, fac:   F   F   0.49863388E+00
(PID.TID 0000.0001)  exf_GetFFieldsRec:      count0, count1:   1   2
(PID.TID 0000.0001) 
(PID.TID 0000.0001) 
(PID.TID 0000.0001)  exf_GetFFieldsRec: first, changed, fac:   F   F   0.49863388E+00
(PID.TID 0000.0001)  exf_GetFFieldsRec:      count0, count1:   1   2
(PID.TID 0000.0001) 
(PID.TID 0000.0001)  MDSREADFIELD: opening file: xx_uwind.0000000000.001.001.data
(PID.TID 0000.0001)  MDSREADFIELD: opening file: xx_uwind.0000000000.001.001.data
(PID.TID 0000.0001)  MDSREADFIELD: opening file: xx_vwind.0000000000.001.001.data
(PID.TID 0000.0001)  MDSREADFIELD: opening file: xx_vwind.0000000000.001.001.data
(PID.TID 0000.0001) 
(PID.TID 0000.0001)  exf_GetFFieldsRec: first, changed, fac:   F   F   0.49863388E+00
(PID.TID 0000.0001)  exf_GetFFieldsRec:      count0, count1:   1   2
(PID.TID 0000.0001) 
(PID.TID 0000.0001) 
(PID.TID 0000.0001)  exf_GetFFieldsRec: first, changed, fac:   F   F   0.49863388E+00
(PID.TID 0000.0001)  exf_GetFFieldsRec:      count0, count1:   1   2
(PID.TID 0000.0001) 
(PID.TID 0000.0001) 
(PID.TID 0000.0001)  exf_GetFFieldsRec: first, changed, fac:   F   F   0.49863388E+00
(PID.TID 0000.0001)  exf_GetFFieldsRec:      count0, count1:   1   2
(PID.TID 0000.0001) 
(PID.TID 0000.0001)  MDSREADFIELD: opening file: xx_atemp.0000000000.001.001.data
(PID.TID 0000.0001)  MDSREADFIELD: opening file: xx_atemp.0000000000.001.001.data
(PID.TID 0000.0001)  MDSREADFIELD: opening file: xx_aqh.0000000000.001.001.data
(PID.TID 0000.0001)  MDSREADFIELD: opening file: xx_aqh.0000000000.001.001.data
(PID.TID 0000.0001) 
(PID.TID 0000.0001)  exf_GetFFieldsRec: first, changed, fac:   F   F   0.49863388E+00
(PID.TID 0000.0001)  exf_GetFFieldsRec:      count0, count1:   1   2
(PID.TID 0000.0001) 
(PID.TID 0000.0001) 
(PID.TID 0000.0001)  exf_GetFFieldsRec: first, changed, fac:   F   F   0.49863388E+00
(PID.TID 0000.0001)  exf_GetFFieldsRec:      count0, count1:   1   2
(PID.TID 0000.0001) 
 cg2d: Sum(rhs),rhsMax =   7.37474317724640E-16  1.23585471329616E+00
(PID.TID 0000.0001)                    cg2d_init_res =    3.48544561450945E-01
(PID.TID 0000.0001)                       cg2d_iters =    45
(PID.TID 0000.0001)                         cg2d_res =    6.49477568692734E-14
(PID.TID 0000.0001) 
(PID.TID 0000.0001)  exf_GetFFieldsRec: first, changed, fac:   F   F   0.49726776E+00
(PID.TID 0000.0001)  exf_GetFFieldsRec:      count0, count1:   1   2
(PID.TID 0000.0001) 
(PID.TID 0000.0001) 
(PID.TID 0000.0001)  exf_GetFFieldsRec: first, changed, fac:   F   F   0.49726776E+00
(PID.TID 0000.0001)  exf_GetFFieldsRec:      count0, count1:   1   2
(PID.TID 0000.0001) 
(PID.TID 0000.0001)  MDSREADFIELD: opening file: xx_uwind.0000000000.001.001.data
(PID.TID 0000.0001)  MDSREADFIELD: opening file: xx_uwind.0000000000.001.001.data
(PID.TID 0000.0001)  MDSREADFIELD: opening file: xx_vwind.0000000000.001.001.data
(PID.TID 0000.0001)  MDSREADFIELD: opening file: xx_vwind.0000000000.001.001.data
(PID.TID 0000.0001) 
(PID.TID 0000.0001)  exf_GetFFieldsRec: first, changed, fac:   F   F   0.49726776E+00
(PID.TID 0000.0001)  exf_GetFFieldsRec:      count0, count1:   1   2
(PID.TID 0000.0001) 
(PID.TID 0000.0001) 
(PID.TID 0000.0001)  exf_GetFFieldsRec: first, changed, fac:   F   F   0.49726776E+00
(PID.TID 0000.0001)  exf_GetFFieldsRec:      count0, count1:   1   2
(PID.TID 0000.0001) 
(PID.TID 0000.0001) 
(PID.TID 0000.0001)  exf_GetFFieldsRec: first, changed, fac:   F   F   0.49726776E+00
(PID.TID 0000.0001)  exf_GetFFieldsRec:      count0, count1:   1   2
(PID.TID 0000.0001) 
(PID.TID 0000.0001)  MDSREADFIELD: opening file: xx_atemp.0000000000.001.001.data
(PID.TID 0000.0001)  MDSREADFIELD: opening file: xx_atemp.0000000000.001.001.data
(PID.TID 0000.0001)  MDSREADFIELD: opening file: xx_aqh.0000000000.001.001.data
(PID.TID 0000.0001)  MDSREADFIELD: opening file: xx_aqh.0000000000.001.001.data
(PID.TID 0000.0001) 
(PID.TID 0000.0001)  exf_GetFFieldsRec: first, changed, fac:   F   F   0.49726776E+00
(PID.TID 0000.0001)  exf_GetFFieldsRec:      count0, count1:   1   2
(PID.TID 0000.0001) 
(PID.TID 0000.0001) 
(PID.TID 0000.0001)  exf_GetFFieldsRec: first, changed, fac:   F   F   0.49726776E+00
(PID.TID 0000.0001)  exf_GetFFieldsRec:      count0, count1:   1   2
(PID.TID 0000.0001) 
 cg2d: Sum(rhs),rhsMax =   6.20553955443803E-15  1.25438452343302E+00
(PID.TID 0000.0001)                    cg2d_init_res =    2.36078257971889E-01
(PID.TID 0000.0001)                       cg2d_iters =    45
(PID.TID 0000.0001)                         cg2d_res =    6.62546240702124E-14
(PID.TID 0000.0001) 
(PID.TID 0000.0001)  exf_GetFFieldsRec: first, changed, fac:   F   F   0.49590164E+00
(PID.TID 0000.0001)  exf_GetFFieldsRec:      count0, count1:   1   2
(PID.TID 0000.0001) 
(PID.TID 0000.0001) 
(PID.TID 0000.0001)  exf_GetFFieldsRec: first, changed, fac:   F   F   0.49590164E+00
(PID.TID 0000.0001)  exf_GetFFieldsRec:      count0, count1:   1   2
(PID.TID 0000.0001) 
(PID.TID 0000.0001)  MDSREADFIELD: opening file: xx_uwind.0000000000.001.001.data
(PID.TID 0000.0001)  MDSREADFIELD: opening file: xx_uwind.0000000000.001.001.data
(PID.TID 0000.0001)  MDSREADFIELD: opening file: xx_vwind.0000000000.001.001.data
(PID.TID 0000.0001)  MDSREADFIELD: opening file: xx_vwind.0000000000.001.001.data
(PID.TID 0000.0001) 
(PID.TID 0000.0001)  exf_GetFFieldsRec: first, changed, fac:   F   F   0.49590164E+00
(PID.TID 0000.0001)  exf_GetFFieldsRec:      count0, count1:   1   2
(PID.TID 0000.0001) 
(PID.TID 0000.0001) 
(PID.TID 0000.0001)  exf_GetFFieldsRec: first, changed, fac:   F   F   0.49590164E+00
(PID.TID 0000.0001)  exf_GetFFieldsRec:      count0, count1:   1   2
(PID.TID 0000.0001) 
(PID.TID 0000.0001) 
(PID.TID 0000.0001)  exf_GetFFieldsRec: first, changed, fac:   F   F   0.49590164E+00
(PID.TID 0000.0001)  exf_GetFFieldsRec:      count0, count1:   1   2
(PID.TID 0000.0001) 
(PID.TID 0000.0001)  MDSREADFIELD: opening file: xx_atemp.0000000000.001.001.data
(PID.TID 0000.0001)  MDSREADFIELD: opening file: xx_atemp.0000000000.001.001.data
(PID.TID 0000.0001)  MDSREADFIELD: opening file: xx_aqh.0000000000.001.001.data
(PID.TID 0000.0001)  MDSREADFIELD: opening file: xx_aqh.0000000000.001.001.data
(PID.TID 0000.0001) 
(PID.TID 0000.0001)  exf_GetFFieldsRec: first, changed, fac:   F   F   0.49590164E+00
(PID.TID 0000.0001)  exf_GetFFieldsRec:      count0, count1:   1   2
(PID.TID 0000.0001) 
(PID.TID 0000.0001) 
(PID.TID 0000.0001)  exf_GetFFieldsRec: first, changed, fac:   F   F   0.49590164E+00
(PID.TID 0000.0001)  exf_GetFFieldsRec:      count0, count1:   1   2
(PID.TID 0000.0001) 
 cg2d: Sum(rhs),rhsMax =   3.20620266447413E-15  1.25494322187447E+00
(PID.TID 0000.0001)                    cg2d_init_res =    1.82553144014713E-01
(PID.TID 0000.0001)                       cg2d_iters =    45
(PID.TID 0000.0001)                         cg2d_res =    5.12415163303431E-14
(PID.TID 0000.0001)  MDSREADVECTOR: opening file: tapelev2_1_the_main_loop_gsnm1.it0000.001.001.data
(PID.TID 0000.0001)  MDS_READ_RL_VEC: irec =  00000001   00015456
(PID.TID 0000.0001)  MDSREADVECTOR: opening file: tapelev2_2_the_main_loop_gtnm1.it0000.001.001.data
(PID.TID 0000.0001)  MDS_READ_RL_VEC: irec =  00000001   00015456
(PID.TID 0000.0001)  MDSREADVECTOR: opening file: tapelev2_3_the_main_loop_gunm1.it0000.001.001.data
(PID.TID 0000.0001)  MDS_READ_RL_VEC: irec =  00000001   00015456
(PID.TID 0000.0001)  MDSREADVECTOR: opening file: tapelev2_4_the_main_loop_gvnm1.it0000.001.001.data
(PID.TID 0000.0001)  MDS_READ_RL_VEC: irec =  00000001   00015456
(PID.TID 0000.0001)  MDSREADVECTOR: opening file: tapelev2_5_the_main_loop_theta.it0000.001.001.data
(PID.TID 0000.0001)  MDS_READ_RL_VEC: irec =  00000001   00015456
(PID.TID 0000.0001)  MDSREADVECTOR: opening file: tapelev2_6_the_main_loop_salt.it0000.001.001.data
(PID.TID 0000.0001)  MDS_READ_RL_VEC: irec =  00000001   00015456
(PID.TID 0000.0001)  MDSREADVECTOR: opening file: tapelev2_7_the_main_loop_uvel.it0000.001.001.data
(PID.TID 0000.0001)  MDS_READ_RL_VEC: irec =  00000001   00015456
(PID.TID 0000.0001)  MDSREADVECTOR: opening file: tapelev2_8_the_main_loop_vvel.it0000.001.001.data
(PID.TID 0000.0001)  MDS_READ_RL_VEC: irec =  00000001   00015456
(PID.TID 0000.0001)  MDSREADVECTOR: opening file: tapelev2_9_the_main_loop_wvel.it0000.001.001.data
(PID.TID 0000.0001)  MDS_READ_RL_VEC: irec =  00000001   00015456
(PID.TID 0000.0001)  MDSREADVECTOR: opening file: tapelev2_10_the_main_loop_etan.it0000.001.001.data
(PID.TID 0000.0001)  MDS_READ_RL_VEC: irec =  00000001   00000672
(PID.TID 0000.0001)  MDSREADVECTOR: opening file: tapelev2_11_the_main_loop_gu.it0000.001.001.data
(PID.TID 0000.0001)  MDS_READ_RL_VEC: irec =  00000001   00015456
(PID.TID 0000.0001)  MDSREADVECTOR: opening file: tapelev2_12_the_main_loop_gv.it0000.001.001.data
(PID.TID 0000.0001)  MDS_READ_RL_VEC: irec =  00000001   00015456
(PID.TID 0000.0001)  MDSREADVECTOR: opening file: tapelev2_13_the_main_loop_uveld.it0000.001.001.data
(PID.TID 0000.0001)  MDS_READ_RL_VEC: irec =  00000001   00015456
(PID.TID 0000.0001)  MDSREADVECTOR: opening file: tapelev2_14_the_main_loop_vveld.it0000.001.001.data
(PID.TID 0000.0001)  MDS_READ_RL_VEC: irec =  00000001   00015456
(PID.TID 0000.0001)  MDSREADVECTOR: opening file: tapelev2_15_the_main_loop_etanm1.it0000.001.001.data
(PID.TID 0000.0001)  MDS_READ_RL_VEC: irec =  00000001   00000672
(PID.TID 0000.0001)  MDSREADVECTOR: opening file: tapelev2_16_the_main_loop_unm1.it0000.001.001.data
(PID.TID 0000.0001)  MDS_READ_RL_VEC: irec =  00000001   00015456
(PID.TID 0000.0001)  MDSREADVECTOR: opening file: tapelev2_17_the_main_loop_vnm1.it0000.001.001.data
(PID.TID 0000.0001)  MDS_READ_RL_VEC: irec =  00000001   00015456
(PID.TID 0000.0001)  MDSREADVECTOR: opening file: tapelev2_18_the_main_loop_gucd.it0000.001.001.data
(PID.TID 0000.0001)  MDS_READ_RL_VEC: irec =  00000001   00015456
(PID.TID 0000.0001)  MDSREADVECTOR: opening file: tapelev2_19_the_main_loop_gvcd.it0000.001.001.data
(PID.TID 0000.0001)  MDS_READ_RL_VEC: irec =  00000001   00015456
(PID.TID 0000.0001)  MDSREADVECTOR: opening file: tapelev2_20_the_main_loop_etah.it0000.001.001.data
(PID.TID 0000.0001)  MDS_READ_RL_VEC: irec =  00000001   00000672
(PID.TID 0000.0001)  MDSREADVECTOR: opening file: tapelev2_21_the_main_loop_hdivflow.it0000.001.001.data
(PID.TID 0000.0001)  MDS_READ_RL_VEC: irec =  00000001   00000672
(PID.TID 0000.0001)  MDSREADVECTOR: opening file: tapelev2_22_the_main_loop_aqh0.it0000.001.001.data
(PID.TID 0000.0001)  MDS_READ_RL_VEC: irec =  00000001   00000672
(PID.TID 0000.0001)  MDSREADVECTOR: opening file: tapelev2_23_the_main_loop_aqh1.it0000.001.001.data
(PID.TID 0000.0001)  MDS_READ_RL_VEC: irec =  00000001   00000672
(PID.TID 0000.0001)  MDSREADVECTOR: opening file: tapelev2_24_the_main_loop_atemp0.it0000.001.001.data
(PID.TID 0000.0001)  MDS_READ_RL_VEC: irec =  00000001   00000672
(PID.TID 0000.0001)  MDSREADVECTOR: opening file: tapelev2_25_the_main_loop_atemp1.it0000.001.001.data
(PID.TID 0000.0001)  MDS_READ_RL_VEC: irec =  00000001   00000672
(PID.TID 0000.0001)  MDSREADVECTOR: opening file: tapelev2_26_the_main_loop_precip0.it0000.001.001.data
(PID.TID 0000.0001)  MDS_READ_RL_VEC: irec =  00000001   00000672
(PID.TID 0000.0001)  MDSREADVECTOR: opening file: tapelev2_27_the_main_loop_precip1.it0000.001.001.data
(PID.TID 0000.0001)  MDS_READ_RL_VEC: irec =  00000001   00000672
(PID.TID 0000.0001)  MDSREADVECTOR: opening file: tapelev2_28_the_main_loop_lwflux0.it0000.001.001.data
(PID.TID 0000.0001)  MDS_READ_RL_VEC: irec =  00000001   00000672
(PID.TID 0000.0001)  MDSREADVECTOR: opening file: tapelev2_29_the_main_loop_lwflux1.it0000.001.001.data
(PID.TID 0000.0001)  MDS_READ_RL_VEC: irec =  00000001   00000672
(PID.TID 0000.0001)  MDSREADVECTOR: opening file: tapelev2_30_the_main_loop_swflux0.it0000.001.001.data
(PID.TID 0000.0001)  MDS_READ_RL_VEC: irec =  00000001   00000672
(PID.TID 0000.0001)  MDSREADVECTOR: opening file: tapelev2_31_the_main_loop_swflux1.it0000.001.001.data
(PID.TID 0000.0001)  MDS_READ_RL_VEC: irec =  00000001   00000672
(PID.TID 0000.0001)  MDSREADVECTOR: opening file: tapelev2_32_the_main_loop_evap.it0000.001.001.data
(PID.TID 0000.0001)  MDS_READ_RL_VEC: irec =  00000001   00000672
(PID.TID 0000.0001)  MDSREADVECTOR: opening file: tapelev2_33_the_main_loop_uwind0.it0000.001.001.data
(PID.TID 0000.0001)  MDS_READ_RL_VEC: irec =  00000001   00000672
(PID.TID 0000.0001)  MDSREADVECTOR: opening file: tapelev2_34_the_main_loop_uwind1.it0000.001.001.data
(PID.TID 0000.0001)  MDS_READ_RL_VEC: irec =  00000001   00000672
(PID.TID 0000.0001)  MDSREADVECTOR: opening file: tapelev2_35_the_main_loop_vwind0.it0000.001.001.data
(PID.TID 0000.0001)  MDS_READ_RL_VEC: irec =  00000001   00000672
(PID.TID 0000.0001)  MDSREADVECTOR: opening file: tapelev2_36_the_main_loop_vwind1.it0000.001.001.data
(PID.TID 0000.0001)  MDS_READ_RL_VEC: irec =  00000001   00000672
(PID.TID 0000.0001) 
(PID.TID 0000.0001)  exf_GetFFieldsRec: first, changed, fac:   T   F   0.50000000E+00
(PID.TID 0000.0001)  exf_GetFFieldsRec:      count0, count1:   1   2
(PID.TID 0000.0001) 
(PID.TID 0000.0001)  MDSREADFIELD: opening global file: u10m.labsea79
(PID.TID 0000.0001)  MDSREADFIELD: opening global file: u10m.labsea79
(PID.TID 0000.0001) 
(PID.TID 0000.0001)  exf_GetFFieldsRec: first, changed, fac:   T   F   0.50000000E+00
(PID.TID 0000.0001)  exf_GetFFieldsRec:      count0, count1:   1   2
(PID.TID 0000.0001) 
(PID.TID 0000.0001)  MDSREADFIELD: opening global file: v10m.labsea79
(PID.TID 0000.0001)  MDSREADFIELD: opening global file: v10m.labsea79
(PID.TID 0000.0001)  MDSREADFIELD: opening file: xx_uwind.0000000000.001.001.data
(PID.TID 0000.0001)  MDSREADFIELD: opening file: xx_uwind.0000000000.001.001.data
(PID.TID 0000.0001)  MDSREADFIELD: opening file: xx_vwind.0000000000.001.001.data
(PID.TID 0000.0001)  MDSREADFIELD: opening file: xx_vwind.0000000000.001.001.data
(PID.TID 0000.0001) 
(PID.TID 0000.0001)  exf_GetFFieldsRec: first, changed, fac:   T   F   0.50000000E+00
(PID.TID 0000.0001)  exf_GetFFieldsRec:      count0, count1:   1   2
(PID.TID 0000.0001) 
(PID.TID 0000.0001)  MDSREADFIELD: opening global file: tair.labsea1979
(PID.TID 0000.0001)  MDSREADFIELD: opening global file: tair.labsea1979
(PID.TID 0000.0001) 
(PID.TID 0000.0001)  exf_GetFFieldsRec: first, changed, fac:   T   F   0.50000000E+00
(PID.TID 0000.0001)  exf_GetFFieldsRec:      count0, count1:   1   2
(PID.TID 0000.0001) 
(PID.TID 0000.0001)  MDSREADFIELD: opening global file: qa.labsea1979
(PID.TID 0000.0001)  MDSREADFIELD: opening global file: qa.labsea1979
(PID.TID 0000.0001) 
(PID.TID 0000.0001)  exf_GetFFieldsRec: first, changed, fac:   T   F   0.50000000E+00
(PID.TID 0000.0001)  exf_GetFFieldsRec:      count0, count1:   1   2
(PID.TID 0000.0001) 
(PID.TID 0000.0001)  MDSREADFIELD: opening global file: prate.labsea1979
(PID.TID 0000.0001)  MDSREADFIELD: opening global file: prate.labsea1979
(PID.TID 0000.0001)  MDSREADFIELD: opening file: xx_atemp.0000000000.001.001.data
(PID.TID 0000.0001)  MDSREADFIELD: opening file: xx_atemp.0000000000.001.001.data
(PID.TID 0000.0001)  MDSREADFIELD: opening file: xx_aqh.0000000000.001.001.data
(PID.TID 0000.0001)  MDSREADFIELD: opening file: xx_aqh.0000000000.001.001.data
(PID.TID 0000.0001) 
(PID.TID 0000.0001)  exf_GetFFieldsRec: first, changed, fac:   T   F   0.50000000E+00
(PID.TID 0000.0001)  exf_GetFFieldsRec:      count0, count1:   1   2
(PID.TID 0000.0001) 
(PID.TID 0000.0001)  MDSREADFIELD: opening global file: fsh.labsea1979
(PID.TID 0000.0001)  MDSREADFIELD: opening global file: fsh.labsea1979
(PID.TID 0000.0001) 
(PID.TID 0000.0001)  exf_GetFFieldsRec: first, changed, fac:   T   F   0.50000000E+00
(PID.TID 0000.0001)  exf_GetFFieldsRec:      count0, count1:   1   2
(PID.TID 0000.0001) 
(PID.TID 0000.0001)  MDSREADFIELD: opening global file: flo.labsea1979
(PID.TID 0000.0001)  MDSREADFIELD: opening global file: flo.labsea1979
 cg2d: Sum(rhs),rhsMax =   1.95590071916385E-16  1.00807802167630E+00
(PID.TID 0000.0001)                    cg2d_init_res =    1.61521300655486E+00
(PID.TID 0000.0001)                       cg2d_iters =    47
(PID.TID 0000.0001)                         cg2d_res =    5.70138941994743E-14
(PID.TID 0000.0001) 
(PID.TID 0000.0001)  exf_GetFFieldsRec: first, changed, fac:   F   F   0.49863388E+00
(PID.TID 0000.0001)  exf_GetFFieldsRec:      count0, count1:   1   2
(PID.TID 0000.0001) 
(PID.TID 0000.0001) 
(PID.TID 0000.0001)  exf_GetFFieldsRec: first, changed, fac:   F   F   0.49863388E+00
(PID.TID 0000.0001)  exf_GetFFieldsRec:      count0, count1:   1   2
(PID.TID 0000.0001) 
(PID.TID 0000.0001)  MDSREADFIELD: opening file: xx_uwind.0000000000.001.001.data
(PID.TID 0000.0001)  MDSREADFIELD: opening file: xx_uwind.0000000000.001.001.data
(PID.TID 0000.0001)  MDSREADFIELD: opening file: xx_vwind.0000000000.001.001.data
(PID.TID 0000.0001)  MDSREADFIELD: opening file: xx_vwind.0000000000.001.001.data
(PID.TID 0000.0001) 
(PID.TID 0000.0001)  exf_GetFFieldsRec: first, changed, fac:   F   F   0.49863388E+00
(PID.TID 0000.0001)  exf_GetFFieldsRec:      count0, count1:   1   2
(PID.TID 0000.0001) 
(PID.TID 0000.0001) 
(PID.TID 0000.0001)  exf_GetFFieldsRec: first, changed, fac:   F   F   0.49863388E+00
(PID.TID 0000.0001)  exf_GetFFieldsRec:      count0, count1:   1   2
(PID.TID 0000.0001) 
(PID.TID 0000.0001) 
(PID.TID 0000.0001)  exf_GetFFieldsRec: first, changed, fac:   F   F   0.49863388E+00
(PID.TID 0000.0001)  exf_GetFFieldsRec:      count0, count1:   1   2
(PID.TID 0000.0001) 
(PID.TID 0000.0001)  MDSREADFIELD: opening file: xx_atemp.0000000000.001.001.data
(PID.TID 0000.0001)  MDSREADFIELD: opening file: xx_atemp.0000000000.001.001.data
(PID.TID 0000.0001)  MDSREADFIELD: opening file: xx_aqh.0000000000.001.001.data
(PID.TID 0000.0001)  MDSREADFIELD: opening file: xx_aqh.0000000000.001.001.data
(PID.TID 0000.0001) 
(PID.TID 0000.0001)  exf_GetFFieldsRec: first, changed, fac:   F   F   0.49863388E+00
(PID.TID 0000.0001)  exf_GetFFieldsRec:      count0, count1:   1   2
(PID.TID 0000.0001) 
(PID.TID 0000.0001) 
(PID.TID 0000.0001)  exf_GetFFieldsRec: first, changed, fac:   F   F   0.49863388E+00
(PID.TID 0000.0001)  exf_GetFFieldsRec:      count0, count1:   1   2
(PID.TID 0000.0001) 
 cg2d: Sum(rhs),rhsMax =   7.37474317724640E-16  1.23585471329616E+00
(PID.TID 0000.0001)                    cg2d_init_res =    3.48544561450945E-01
(PID.TID 0000.0001)                       cg2d_iters =    45
(PID.TID 0000.0001)                         cg2d_res =    6.49477568692734E-14
(PID.TID 0000.0001) 
(PID.TID 0000.0001)  exf_GetFFieldsRec: first, changed, fac:   F   F   0.49726776E+00
(PID.TID 0000.0001)  exf_GetFFieldsRec:      count0, count1:   1   2
(PID.TID 0000.0001) 
(PID.TID 0000.0001) 
(PID.TID 0000.0001)  exf_GetFFieldsRec: first, changed, fac:   F   F   0.49726776E+00
(PID.TID 0000.0001)  exf_GetFFieldsRec:      count0, count1:   1   2
(PID.TID 0000.0001) 
(PID.TID 0000.0001)  MDSREADFIELD: opening file: xx_uwind.0000000000.001.001.data
(PID.TID 0000.0001)  MDSREADFIELD: opening file: xx_uwind.0000000000.001.001.data
(PID.TID 0000.0001)  MDSREADFIELD: opening file: xx_vwind.0000000000.001.001.data
(PID.TID 0000.0001)  MDSREADFIELD: opening file: xx_vwind.0000000000.001.001.data
(PID.TID 0000.0001) 
(PID.TID 0000.0001)  exf_GetFFieldsRec: first, changed, fac:   F   F   0.49726776E+00
(PID.TID 0000.0001)  exf_GetFFieldsRec:      count0, count1:   1   2
(PID.TID 0000.0001) 
(PID.TID 0000.0001) 
(PID.TID 0000.0001)  exf_GetFFieldsRec: first, changed, fac:   F   F   0.49726776E+00
(PID.TID 0000.0001)  exf_GetFFieldsRec:      count0, count1:   1   2
(PID.TID 0000.0001) 
(PID.TID 0000.0001) 
(PID.TID 0000.0001)  exf_GetFFieldsRec: first, changed, fac:   F   F   0.49726776E+00
(PID.TID 0000.0001)  exf_GetFFieldsRec:      count0, count1:   1   2
(PID.TID 0000.0001) 
(PID.TID 0000.0001)  MDSREADFIELD: opening file: xx_atemp.0000000000.001.001.data
(PID.TID 0000.0001)  MDSREADFIELD: opening file: xx_atemp.0000000000.001.001.data
(PID.TID 0000.0001)  MDSREADFIELD: opening file: xx_aqh.0000000000.001.001.data
(PID.TID 0000.0001)  MDSREADFIELD: opening file: xx_aqh.0000000000.001.001.data
(PID.TID 0000.0001) 
(PID.TID 0000.0001)  exf_GetFFieldsRec: first, changed, fac:   F   F   0.49726776E+00
(PID.TID 0000.0001)  exf_GetFFieldsRec:      count0, count1:   1   2
(PID.TID 0000.0001) 
(PID.TID 0000.0001) 
(PID.TID 0000.0001)  exf_GetFFieldsRec: first, changed, fac:   F   F   0.49726776E+00
(PID.TID 0000.0001)  exf_GetFFieldsRec:      count0, count1:   1   2
(PID.TID 0000.0001) 
 cg2d: Sum(rhs),rhsMax =   6.20553955443803E-15  1.25438452343302E+00
(PID.TID 0000.0001)                    cg2d_init_res =    2.36078257971889E-01
(PID.TID 0000.0001)                       cg2d_iters =    45
(PID.TID 0000.0001)                         cg2d_res =    6.62546240702124E-14
(PID.TID 0000.0001) 
(PID.TID 0000.0001)  exf_GetFFieldsRec: first, changed, fac:   F   F   0.49590164E+00
(PID.TID 0000.0001)  exf_GetFFieldsRec:      count0, count1:   1   2
(PID.TID 0000.0001) 
(PID.TID 0000.0001) 
(PID.TID 0000.0001)  exf_GetFFieldsRec: first, changed, fac:   F   F   0.49590164E+00
(PID.TID 0000.0001)  exf_GetFFieldsRec:      count0, count1:   1   2
(PID.TID 0000.0001) 
(PID.TID 0000.0001)  MDSREADFIELD: opening file: xx_uwind.0000000000.001.001.data
(PID.TID 0000.0001)  MDSREADFIELD: opening file: xx_uwind.0000000000.001.001.data
(PID.TID 0000.0001)  MDSREADFIELD: opening file: xx_vwind.0000000000.001.001.data
(PID.TID 0000.0001)  MDSREADFIELD: opening file: xx_vwind.0000000000.001.001.data
(PID.TID 0000.0001) 
(PID.TID 0000.0001)  exf_GetFFieldsRec: first, changed, fac:   F   F   0.49590164E+00
(PID.TID 0000.0001)  exf_GetFFieldsRec:      count0, count1:   1   2
(PID.TID 0000.0001) 
(PID.TID 0000.0001) 
(PID.TID 0000.0001)  exf_GetFFieldsRec: first, changed, fac:   F   F   0.49590164E+00
(PID.TID 0000.0001)  exf_GetFFieldsRec:      count0, count1:   1   2
(PID.TID 0000.0001) 
(PID.TID 0000.0001) 
(PID.TID 0000.0001)  exf_GetFFieldsRec: first, changed, fac:   F   F   0.49590164E+00
(PID.TID 0000.0001)  exf_GetFFieldsRec:      count0, count1:   1   2
(PID.TID 0000.0001) 
(PID.TID 0000.0001)  MDSREADFIELD: opening file: xx_atemp.0000000000.001.001.data
(PID.TID 0000.0001)  MDSREADFIELD: opening file: xx_atemp.0000000000.001.001.data
(PID.TID 0000.0001)  MDSREADFIELD: opening file: xx_aqh.0000000000.001.001.data
(PID.TID 0000.0001)  MDSREADFIELD: opening file: xx_aqh.0000000000.001.001.data
(PID.TID 0000.0001) 
(PID.TID 0000.0001)  exf_GetFFieldsRec: first, changed, fac:   F   F   0.49590164E+00
(PID.TID 0000.0001)  exf_GetFFieldsRec:      count0, count1:   1   2
(PID.TID 0000.0001) 
(PID.TID 0000.0001) 
(PID.TID 0000.0001)  exf_GetFFieldsRec: first, changed, fac:   F   F   0.49590164E+00
(PID.TID 0000.0001)  exf_GetFFieldsRec:      count0, count1:   1   2
(PID.TID 0000.0001) 
 cg2d: Sum(rhs),rhsMax =   3.20620266447413E-15  1.25494322187447E+00
(PID.TID 0000.0001)                    cg2d_init_res =    1.82553144014713E-01
(PID.TID 0000.0001)                       cg2d_iters =    45
(PID.TID 0000.0001)                         cg2d_res =    5.12415163303431E-14
(PID.TID 0000.0001)  MDSREADVECTOR: opening file: tapelev2_1_the_main_loop_gsnm1.it0000.001.001.data
(PID.TID 0000.0001)  MDS_READ_RL_VEC: irec =  00000001   00015456
(PID.TID 0000.0001)  MDSREADVECTOR: opening file: tapelev2_2_the_main_loop_gtnm1.it0000.001.001.data
(PID.TID 0000.0001)  MDS_READ_RL_VEC: irec =  00000001   00015456
(PID.TID 0000.0001)  MDSREADVECTOR: opening file: tapelev2_3_the_main_loop_gunm1.it0000.001.001.data
(PID.TID 0000.0001)  MDS_READ_RL_VEC: irec =  00000001   00015456
(PID.TID 0000.0001)  MDSREADVECTOR: opening file: tapelev2_4_the_main_loop_gvnm1.it0000.001.001.data
(PID.TID 0000.0001)  MDS_READ_RL_VEC: irec =  00000001   00015456
(PID.TID 0000.0001)  MDSREADVECTOR: opening file: tapelev2_5_the_main_loop_theta.it0000.001.001.data
(PID.TID 0000.0001)  MDS_READ_RL_VEC: irec =  00000001   00015456
(PID.TID 0000.0001)  MDSREADVECTOR: opening file: tapelev2_6_the_main_loop_salt.it0000.001.001.data
(PID.TID 0000.0001)  MDS_READ_RL_VEC: irec =  00000001   00015456
(PID.TID 0000.0001)  MDSREADVECTOR: opening file: tapelev2_7_the_main_loop_uvel.it0000.001.001.data
(PID.TID 0000.0001)  MDS_READ_RL_VEC: irec =  00000001   00015456
(PID.TID 0000.0001)  MDSREADVECTOR: opening file: tapelev2_8_the_main_loop_vvel.it0000.001.001.data
(PID.TID 0000.0001)  MDS_READ_RL_VEC: irec =  00000001   00015456
(PID.TID 0000.0001)  MDSREADVECTOR: opening file: tapelev2_9_the_main_loop_wvel.it0000.001.001.data
(PID.TID 0000.0001)  MDS_READ_RL_VEC: irec =  00000001   00015456
(PID.TID 0000.0001)  MDSREADVECTOR: opening file: tapelev2_10_the_main_loop_etan.it0000.001.001.data
(PID.TID 0000.0001)  MDS_READ_RL_VEC: irec =  00000001   00000672
(PID.TID 0000.0001)  MDSREADVECTOR: opening file: tapelev2_11_the_main_loop_gu.it0000.001.001.data
(PID.TID 0000.0001)  MDS_READ_RL_VEC: irec =  00000001   00015456
(PID.TID 0000.0001)  MDSREADVECTOR: opening file: tapelev2_12_the_main_loop_gv.it0000.001.001.data
(PID.TID 0000.0001)  MDS_READ_RL_VEC: irec =  00000001   00015456
(PID.TID 0000.0001)  MDSREADVECTOR: opening file: tapelev2_13_the_main_loop_uveld.it0000.001.001.data
(PID.TID 0000.0001)  MDS_READ_RL_VEC: irec =  00000001   00015456
(PID.TID 0000.0001)  MDSREADVECTOR: opening file: tapelev2_14_the_main_loop_vveld.it0000.001.001.data
(PID.TID 0000.0001)  MDS_READ_RL_VEC: irec =  00000001   00015456
(PID.TID 0000.0001)  MDSREADVECTOR: opening file: tapelev2_15_the_main_loop_etanm1.it0000.001.001.data
(PID.TID 0000.0001)  MDS_READ_RL_VEC: irec =  00000001   00000672
(PID.TID 0000.0001)  MDSREADVECTOR: opening file: tapelev2_16_the_main_loop_unm1.it0000.001.001.data
(PID.TID 0000.0001)  MDS_READ_RL_VEC: irec =  00000001   00015456
(PID.TID 0000.0001)  MDSREADVECTOR: opening file: tapelev2_17_the_main_loop_vnm1.it0000.001.001.data
(PID.TID 0000.0001)  MDS_READ_RL_VEC: irec =  00000001   00015456
(PID.TID 0000.0001)  MDSREADVECTOR: opening file: tapelev2_18_the_main_loop_gucd.it0000.001.001.data
(PID.TID 0000.0001)  MDS_READ_RL_VEC: irec =  00000001   00015456
(PID.TID 0000.0001)  MDSREADVECTOR: opening file: tapelev2_19_the_main_loop_gvcd.it0000.001.001.data
(PID.TID 0000.0001)  MDS_READ_RL_VEC: irec =  00000001   00015456
(PID.TID 0000.0001)  MDSREADVECTOR: opening file: tapelev2_20_the_main_loop_etah.it0000.001.001.data
(PID.TID 0000.0001)  MDS_READ_RL_VEC: irec =  00000001   00000672
(PID.TID 0000.0001)  MDSREADVECTOR: opening file: tapelev2_21_the_main_loop_hdivflow.it0000.001.001.data
(PID.TID 0000.0001)  MDS_READ_RL_VEC: irec =  00000001   00000672
(PID.TID 0000.0001)  MDSREADVECTOR: opening file: tapelev2_22_the_main_loop_aqh0.it0000.001.001.data
(PID.TID 0000.0001)  MDS_READ_RL_VEC: irec =  00000001   00000672
(PID.TID 0000.0001)  MDSREADVECTOR: opening file: tapelev2_23_the_main_loop_aqh1.it0000.001.001.data
(PID.TID 0000.0001)  MDS_READ_RL_VEC: irec =  00000001   00000672
(PID.TID 0000.0001)  MDSREADVECTOR: opening file: tapelev2_24_the_main_loop_atemp0.it0000.001.001.data
(PID.TID 0000.0001)  MDS_READ_RL_VEC: irec =  00000001   00000672
(PID.TID 0000.0001)  MDSREADVECTOR: opening file: tapelev2_25_the_main_loop_atemp1.it0000.001.001.data
(PID.TID 0000.0001)  MDS_READ_RL_VEC: irec =  00000001   00000672
(PID.TID 0000.0001)  MDSREADVECTOR: opening file: tapelev2_26_the_main_loop_precip0.it0000.001.001.data
(PID.TID 0000.0001)  MDS_READ_RL_VEC: irec =  00000001   00000672
(PID.TID 0000.0001)  MDSREADVECTOR: opening file: tapelev2_27_the_main_loop_precip1.it0000.001.001.data
(PID.TID 0000.0001)  MDS_READ_RL_VEC: irec =  00000001   00000672
(PID.TID 0000.0001)  MDSREADVECTOR: opening file: tapelev2_28_the_main_loop_lwflux0.it0000.001.001.data
(PID.TID 0000.0001)  MDS_READ_RL_VEC: irec =  00000001   00000672
(PID.TID 0000.0001)  MDSREADVECTOR: opening file: tapelev2_29_the_main_loop_lwflux1.it0000.001.001.data
(PID.TID 0000.0001)  MDS_READ_RL_VEC: irec =  00000001   00000672
(PID.TID 0000.0001)  MDSREADVECTOR: opening file: tapelev2_30_the_main_loop_swflux0.it0000.001.001.data
(PID.TID 0000.0001)  MDS_READ_RL_VEC: irec =  00000001   00000672
(PID.TID 0000.0001)  MDSREADVECTOR: opening file: tapelev2_31_the_main_loop_swflux1.it0000.001.001.data
(PID.TID 0000.0001)  MDS_READ_RL_VEC: irec =  00000001   00000672
(PID.TID 0000.0001)  MDSREADVECTOR: opening file: tapelev2_32_the_main_loop_evap.it0000.001.001.data
(PID.TID 0000.0001)  MDS_READ_RL_VEC: irec =  00000001   00000672
(PID.TID 0000.0001)  MDSREADVECTOR: opening file: tapelev2_33_the_main_loop_uwind0.it0000.001.001.data
(PID.TID 0000.0001)  MDS_READ_RL_VEC: irec =  00000001   00000672
(PID.TID 0000.0001)  MDSREADVECTOR: opening file: tapelev2_34_the_main_loop_uwind1.it0000.001.001.data
(PID.TID 0000.0001)  MDS_READ_RL_VEC: irec =  00000001   00000672
(PID.TID 0000.0001)  MDSREADVECTOR: opening file: tapelev2_35_the_main_loop_vwind0.it0000.001.001.data
(PID.TID 0000.0001)  MDS_READ_RL_VEC: irec =  00000001   00000672
(PID.TID 0000.0001)  MDSREADVECTOR: opening file: tapelev2_36_the_main_loop_vwind1.it0000.001.001.data
(PID.TID 0000.0001)  MDS_READ_RL_VEC: irec =  00000001   00000672
(PID.TID 0000.0001) 
(PID.TID 0000.0001)  exf_GetFFieldsRec: first, changed, fac:   T   F   0.50000000E+00
(PID.TID 0000.0001)  exf_GetFFieldsRec:      count0, count1:   1   2
(PID.TID 0000.0001) 
(PID.TID 0000.0001)  MDSREADFIELD: opening global file: u10m.labsea79
(PID.TID 0000.0001)  MDSREADFIELD: opening global file: u10m.labsea79
(PID.TID 0000.0001) 
(PID.TID 0000.0001)  exf_GetFFieldsRec: first, changed, fac:   T   F   0.50000000E+00
(PID.TID 0000.0001)  exf_GetFFieldsRec:      count0, count1:   1   2
(PID.TID 0000.0001) 
(PID.TID 0000.0001)  MDSREADFIELD: opening global file: v10m.labsea79
(PID.TID 0000.0001)  MDSREADFIELD: opening global file: v10m.labsea79
(PID.TID 0000.0001)  MDSREADFIELD: opening file: xx_uwind.0000000000.001.001.data
(PID.TID 0000.0001)  MDSREADFIELD: opening file: xx_uwind.0000000000.001.001.data
(PID.TID 0000.0001)  MDSREADFIELD: opening file: xx_vwind.0000000000.001.001.data
(PID.TID 0000.0001)  MDSREADFIELD: opening file: xx_vwind.0000000000.001.001.data
(PID.TID 0000.0001) 
(PID.TID 0000.0001)  exf_GetFFieldsRec: first, changed, fac:   T   F   0.50000000E+00
(PID.TID 0000.0001)  exf_GetFFieldsRec:      count0, count1:   1   2
(PID.TID 0000.0001) 
(PID.TID 0000.0001)  MDSREADFIELD: opening global file: tair.labsea1979
(PID.TID 0000.0001)  MDSREADFIELD: opening global file: tair.labsea1979
(PID.TID 0000.0001) 
(PID.TID 0000.0001)  exf_GetFFieldsRec: first, changed, fac:   T   F   0.50000000E+00
(PID.TID 0000.0001)  exf_GetFFieldsRec:      count0, count1:   1   2
(PID.TID 0000.0001) 
(PID.TID 0000.0001)  MDSREADFIELD: opening global file: qa.labsea1979
(PID.TID 0000.0001)  MDSREADFIELD: opening global file: qa.labsea1979
(PID.TID 0000.0001) 
(PID.TID 0000.0001)  exf_GetFFieldsRec: first, changed, fac:   T   F   0.50000000E+00
(PID.TID 0000.0001)  exf_GetFFieldsRec:      count0, count1:   1   2
(PID.TID 0000.0001) 
(PID.TID 0000.0001)  MDSREADFIELD: opening global file: prate.labsea1979
(PID.TID 0000.0001)  MDSREADFIELD: opening global file: prate.labsea1979
(PID.TID 0000.0001)  MDSREADFIELD: opening file: xx_atemp.0000000000.001.001.data
(PID.TID 0000.0001)  MDSREADFIELD: opening file: xx_atemp.0000000000.001.001.data
(PID.TID 0000.0001)  MDSREADFIELD: opening file: xx_aqh.0000000000.001.001.data
(PID.TID 0000.0001)  MDSREADFIELD: opening file: xx_aqh.0000000000.001.001.data
(PID.TID 0000.0001) 
(PID.TID 0000.0001)  exf_GetFFieldsRec: first, changed, fac:   T   F   0.50000000E+00
(PID.TID 0000.0001)  exf_GetFFieldsRec:      count0, count1:   1   2
(PID.TID 0000.0001) 
(PID.TID 0000.0001)  MDSREADFIELD: opening global file: fsh.labsea1979
(PID.TID 0000.0001)  MDSREADFIELD: opening global file: fsh.labsea1979
(PID.TID 0000.0001) 
(PID.TID 0000.0001)  exf_GetFFieldsRec: first, changed, fac:   T   F   0.50000000E+00
(PID.TID 0000.0001)  exf_GetFFieldsRec:      count0, count1:   1   2
(PID.TID 0000.0001) 
(PID.TID 0000.0001)  MDSREADFIELD: opening global file: flo.labsea1979
(PID.TID 0000.0001)  MDSREADFIELD: opening global file: flo.labsea1979
 cg2d: Sum(rhs),rhsMax =   1.95590071916385E-16  1.00807802167630E+00
(PID.TID 0000.0001)                    cg2d_init_res =    1.61521300655486E+00
(PID.TID 0000.0001)                       cg2d_iters =    47
(PID.TID 0000.0001)                         cg2d_res =    5.70138941994743E-14
(PID.TID 0000.0001) 
(PID.TID 0000.0001)  exf_GetFFieldsRec: first, changed, fac:   F   F   0.49863388E+00
(PID.TID 0000.0001)  exf_GetFFieldsRec:      count0, count1:   1   2
(PID.TID 0000.0001) 
(PID.TID 0000.0001) 
(PID.TID 0000.0001)  exf_GetFFieldsRec: first, changed, fac:   F   F   0.49863388E+00
(PID.TID 0000.0001)  exf_GetFFieldsRec:      count0, count1:   1   2
(PID.TID 0000.0001) 
(PID.TID 0000.0001)  MDSREADFIELD: opening file: xx_uwind.0000000000.001.001.data
(PID.TID 0000.0001)  MDSREADFIELD: opening file: xx_uwind.0000000000.001.001.data
(PID.TID 0000.0001)  MDSREADFIELD: opening file: xx_vwind.0000000000.001.001.data
(PID.TID 0000.0001)  MDSREADFIELD: opening file: xx_vwind.0000000000.001.001.data
(PID.TID 0000.0001) 
(PID.TID 0000.0001)  exf_GetFFieldsRec: first, changed, fac:   F   F   0.49863388E+00
(PID.TID 0000.0001)  exf_GetFFieldsRec:      count0, count1:   1   2
(PID.TID 0000.0001) 
(PID.TID 0000.0001) 
(PID.TID 0000.0001)  exf_GetFFieldsRec: first, changed, fac:   F   F   0.49863388E+00
(PID.TID 0000.0001)  exf_GetFFieldsRec:      count0, count1:   1   2
(PID.TID 0000.0001) 
(PID.TID 0000.0001) 
(PID.TID 0000.0001)  exf_GetFFieldsRec: first, changed, fac:   F   F   0.49863388E+00
(PID.TID 0000.0001)  exf_GetFFieldsRec:      count0, count1:   1   2
(PID.TID 0000.0001) 
(PID.TID 0000.0001)  MDSREADFIELD: opening file: xx_atemp.0000000000.001.001.data
(PID.TID 0000.0001)  MDSREADFIELD: opening file: xx_atemp.0000000000.001.001.data
(PID.TID 0000.0001)  MDSREADFIELD: opening file: xx_aqh.0000000000.001.001.data
(PID.TID 0000.0001)  MDSREADFIELD: opening file: xx_aqh.0000000000.001.001.data
(PID.TID 0000.0001) 
(PID.TID 0000.0001)  exf_GetFFieldsRec: first, changed, fac:   F   F   0.49863388E+00
(PID.TID 0000.0001)  exf_GetFFieldsRec:      count0, count1:   1   2
(PID.TID 0000.0001) 
(PID.TID 0000.0001) 
(PID.TID 0000.0001)  exf_GetFFieldsRec: first, changed, fac:   F   F   0.49863388E+00
(PID.TID 0000.0001)  exf_GetFFieldsRec:      count0, count1:   1   2
(PID.TID 0000.0001) 
 cg2d: Sum(rhs),rhsMax =   7.37474317724640E-16  1.23585471329616E+00
(PID.TID 0000.0001)                    cg2d_init_res =    3.48544561450945E-01
(PID.TID 0000.0001)                       cg2d_iters =    45
(PID.TID 0000.0001)                         cg2d_res =    6.49477568692734E-14
(PID.TID 0000.0001) 
(PID.TID 0000.0001)  exf_GetFFieldsRec: first, changed, fac:   F   F   0.49726776E+00
(PID.TID 0000.0001)  exf_GetFFieldsRec:      count0, count1:   1   2
(PID.TID 0000.0001) 
(PID.TID 0000.0001) 
(PID.TID 0000.0001)  exf_GetFFieldsRec: first, changed, fac:   F   F   0.49726776E+00
(PID.TID 0000.0001)  exf_GetFFieldsRec:      count0, count1:   1   2
(PID.TID 0000.0001) 
(PID.TID 0000.0001)  MDSREADFIELD: opening file: xx_uwind.0000000000.001.001.data
(PID.TID 0000.0001)  MDSREADFIELD: opening file: xx_uwind.0000000000.001.001.data
(PID.TID 0000.0001)  MDSREADFIELD: opening file: xx_vwind.0000000000.001.001.data
(PID.TID 0000.0001)  MDSREADFIELD: opening file: xx_vwind.0000000000.001.001.data
(PID.TID 0000.0001) 
(PID.TID 0000.0001)  exf_GetFFieldsRec: first, changed, fac:   F   F   0.49726776E+00
(PID.TID 0000.0001)  exf_GetFFieldsRec:      count0, count1:   1   2
(PID.TID 0000.0001) 
(PID.TID 0000.0001) 
(PID.TID 0000.0001)  exf_GetFFieldsRec: first, changed, fac:   F   F   0.49726776E+00
(PID.TID 0000.0001)  exf_GetFFieldsRec:      count0, count1:   1   2
(PID.TID 0000.0001) 
(PID.TID 0000.0001) 
(PID.TID 0000.0001)  exf_GetFFieldsRec: first, changed, fac:   F   F   0.49726776E+00
(PID.TID 0000.0001)  exf_GetFFieldsRec:      count0, count1:   1   2
(PID.TID 0000.0001) 
(PID.TID 0000.0001)  MDSREADFIELD: opening file: xx_atemp.0000000000.001.001.data
(PID.TID 0000.0001)  MDSREADFIELD: opening file: xx_atemp.0000000000.001.001.data
(PID.TID 0000.0001)  MDSREADFIELD: opening file: xx_aqh.0000000000.001.001.data
(PID.TID 0000.0001)  MDSREADFIELD: opening file: xx_aqh.0000000000.001.001.data
(PID.TID 0000.0001) 
(PID.TID 0000.0001)  exf_GetFFieldsRec: first, changed, fac:   F   F   0.49726776E+00
(PID.TID 0000.0001)  exf_GetFFieldsRec:      count0, count1:   1   2
(PID.TID 0000.0001) 
(PID.TID 0000.0001) 
(PID.TID 0000.0001)  exf_GetFFieldsRec: first, changed, fac:   F   F   0.49726776E+00
(PID.TID 0000.0001)  exf_GetFFieldsRec:      count0, count1:   1   2
(PID.TID 0000.0001) 
 cg2d: Sum(rhs),rhsMax =   6.20553955443803E-15  1.25438452343302E+00
(PID.TID 0000.0001)                    cg2d_init_res =    2.36078257971889E-01
(PID.TID 0000.0001)                       cg2d_iters =    45
(PID.TID 0000.0001)                         cg2d_res =    6.62546240702124E-14
(PID.TID 0000.0001) 
(PID.TID 0000.0001)  exf_GetFFieldsRec: first, changed, fac:   F   F   0.49590164E+00
(PID.TID 0000.0001)  exf_GetFFieldsRec:      count0, count1:   1   2
(PID.TID 0000.0001) 
(PID.TID 0000.0001) 
(PID.TID 0000.0001)  exf_GetFFieldsRec: first, changed, fac:   F   F   0.49590164E+00
(PID.TID 0000.0001)  exf_GetFFieldsRec:      count0, count1:   1   2
(PID.TID 0000.0001) 
(PID.TID 0000.0001)  MDSREADFIELD: opening file: xx_uwind.0000000000.001.001.data
(PID.TID 0000.0001)  MDSREADFIELD: opening file: xx_uwind.0000000000.001.001.data
(PID.TID 0000.0001)  MDSREADFIELD: opening file: xx_vwind.0000000000.001.001.data
(PID.TID 0000.0001)  MDSREADFIELD: opening file: xx_vwind.0000000000.001.001.data
(PID.TID 0000.0001) 
(PID.TID 0000.0001)  exf_GetFFieldsRec: first, changed, fac:   F   F   0.49590164E+00
(PID.TID 0000.0001)  exf_GetFFieldsRec:      count0, count1:   1   2
(PID.TID 0000.0001) 
(PID.TID 0000.0001) 
(PID.TID 0000.0001)  exf_GetFFieldsRec: first, changed, fac:   F   F   0.49590164E+00
(PID.TID 0000.0001)  exf_GetFFieldsRec:      count0, count1:   1   2
(PID.TID 0000.0001) 
(PID.TID 0000.0001) 
(PID.TID 0000.0001)  exf_GetFFieldsRec: first, changed, fac:   F   F   0.49590164E+00
(PID.TID 0000.0001)  exf_GetFFieldsRec:      count0, count1:   1   2
(PID.TID 0000.0001) 
(PID.TID 0000.0001)  MDSREADFIELD: opening file: xx_atemp.0000000000.001.001.data
(PID.TID 0000.0001)  MDSREADFIELD: opening file: xx_atemp.0000000000.001.001.data
(PID.TID 0000.0001)  MDSREADFIELD: opening file: xx_aqh.0000000000.001.001.data
(PID.TID 0000.0001)  MDSREADFIELD: opening file: xx_aqh.0000000000.001.001.data
(PID.TID 0000.0001) 
(PID.TID 0000.0001)  exf_GetFFieldsRec: first, changed, fac:   F   F   0.49590164E+00
(PID.TID 0000.0001)  exf_GetFFieldsRec:      count0, count1:   1   2
(PID.TID 0000.0001) 
(PID.TID 0000.0001) 
(PID.TID 0000.0001)  exf_GetFFieldsRec: first, changed, fac:   F   F   0.49590164E+00
(PID.TID 0000.0001)  exf_GetFFieldsRec:      count0, count1:   1   2
(PID.TID 0000.0001) 
 cg2d: Sum(rhs),rhsMax =   3.20620266447413E-15  1.25494322187447E+00
(PID.TID 0000.0001)                    cg2d_init_res =    1.82553144014713E-01
(PID.TID 0000.0001)                       cg2d_iters =    45
(PID.TID 0000.0001)                         cg2d_res =    5.12415163303431E-14
(PID.TID 0000.0001) 
(PID.TID 0000.0001)  exf_GetFFieldsRec: first, changed, fac:   F   F   0.49590164E+00
(PID.TID 0000.0001)  exf_GetFFieldsRec:      count0, count1:   1   2
(PID.TID 0000.0001) 
(PID.TID 0000.0001) 
(PID.TID 0000.0001)  exf_GetFFieldsRec: first, changed, fac:   F   F   0.49590164E+00
(PID.TID 0000.0001)  exf_GetFFieldsRec:      count0, count1:   1   2
(PID.TID 0000.0001) 
(PID.TID 0000.0001)  MDSREADFIELD: opening file: xx_uwind.0000000000.001.001.data
(PID.TID 0000.0001)  MDSREADFIELD: opening file: xx_uwind.0000000000.001.001.data
(PID.TID 0000.0001)  MDSREADFIELD: opening file: xx_vwind.0000000000.001.001.data
(PID.TID 0000.0001)  MDSREADFIELD: opening file: xx_vwind.0000000000.001.001.data
(PID.TID 0000.0001) 
(PID.TID 0000.0001)  exf_GetFFieldsRec: first, changed, fac:   F   F   0.49590164E+00
(PID.TID 0000.0001)  exf_GetFFieldsRec:      count0, count1:   1   2
(PID.TID 0000.0001) 
(PID.TID 0000.0001) 
(PID.TID 0000.0001)  exf_GetFFieldsRec: first, changed, fac:   F   F   0.49590164E+00
(PID.TID 0000.0001)  exf_GetFFieldsRec:      count0, count1:   1   2
(PID.TID 0000.0001) 
(PID.TID 0000.0001) 
(PID.TID 0000.0001)  exf_GetFFieldsRec: first, changed, fac:   F   F   0.49590164E+00
(PID.TID 0000.0001)  exf_GetFFieldsRec:      count0, count1:   1   2
(PID.TID 0000.0001) 
(PID.TID 0000.0001)  MDSREADFIELD: opening file: xx_atemp.0000000000.001.001.data
(PID.TID 0000.0001)  MDSREADFIELD: opening file: xx_atemp.0000000000.001.001.data
(PID.TID 0000.0001)  MDSREADFIELD: opening file: xx_aqh.0000000000.001.001.data
(PID.TID 0000.0001)  MDSREADFIELD: opening file: xx_aqh.0000000000.001.001.data
(PID.TID 0000.0001) 
(PID.TID 0000.0001)  exf_GetFFieldsRec: first, changed, fac:   F   F   0.49590164E+00
(PID.TID 0000.0001)  exf_GetFFieldsRec:      count0, count1:   1   2
(PID.TID 0000.0001) 
(PID.TID 0000.0001) 
(PID.TID 0000.0001)  exf_GetFFieldsRec: first, changed, fac:   F   F   0.49590164E+00
(PID.TID 0000.0001)  exf_GetFFieldsRec:      count0, count1:   1   2
(PID.TID 0000.0001) 
 cg2d: Sum(rhs),rhsMax =  -2.08166817117217E-15  4.96107502967562E-07
(PID.TID 0000.0001) 
(PID.TID 0000.0001)  exf_GetFFieldsRec: first, changed, fac:   F   F   0.49590164E+00
(PID.TID 0000.0001)  exf_GetFFieldsRec:      count0, count1:   1   2
(PID.TID 0000.0001) 
(PID.TID 0000.0001) 
(PID.TID 0000.0001)  exf_GetFFieldsRec: first, changed, fac:   F   F   0.49590164E+00
(PID.TID 0000.0001)  exf_GetFFieldsRec:      count0, count1:   1   2
(PID.TID 0000.0001) 
(PID.TID 0000.0001)  MDSREADFIELD: opening file: xx_uwind.0000000000.001.001.data
(PID.TID 0000.0001)  MDSREADFIELD: opening file: xx_uwind.0000000000.001.001.data
(PID.TID 0000.0001)  MDSREADFIELD: opening file: xx_vwind.0000000000.001.001.data
(PID.TID 0000.0001)  MDSREADFIELD: opening file: xx_vwind.0000000000.001.001.data
(PID.TID 0000.0001) 
(PID.TID 0000.0001)  exf_GetFFieldsRec: first, changed, fac:   F   F   0.49590164E+00
(PID.TID 0000.0001)  exf_GetFFieldsRec:      count0, count1:   1   2
(PID.TID 0000.0001) 
(PID.TID 0000.0001) 
(PID.TID 0000.0001)  exf_GetFFieldsRec: first, changed, fac:   F   F   0.49590164E+00
(PID.TID 0000.0001)  exf_GetFFieldsRec:      count0, count1:   1   2
(PID.TID 0000.0001) 
(PID.TID 0000.0001) 
(PID.TID 0000.0001)  exf_GetFFieldsRec: first, changed, fac:   F   F   0.49590164E+00
(PID.TID 0000.0001)  exf_GetFFieldsRec:      count0, count1:   1   2
(PID.TID 0000.0001) 
(PID.TID 0000.0001)  MDSREADFIELD: opening file: xx_atemp.0000000000.001.001.data
(PID.TID 0000.0001)  MDSREADFIELD: opening file: xx_atemp.0000000000.001.001.data
(PID.TID 0000.0001)  MDSREADFIELD: opening file: xx_aqh.0000000000.001.001.data
(PID.TID 0000.0001)  MDSREADFIELD: opening file: xx_aqh.0000000000.001.001.data
(PID.TID 0000.0001) 
(PID.TID 0000.0001)  exf_GetFFieldsRec: first, changed, fac:   F   F   0.49590164E+00
(PID.TID 0000.0001)  exf_GetFFieldsRec:      count0, count1:   1   2
(PID.TID 0000.0001) 
(PID.TID 0000.0001) 
(PID.TID 0000.0001)  exf_GetFFieldsRec: first, changed, fac:   F   F   0.49590164E+00
(PID.TID 0000.0001)  exf_GetFFieldsRec:      count0, count1:   1   2
(PID.TID 0000.0001) 
(PID.TID 0000.0001) 
(PID.TID 0000.0001)  exf_GetFFieldsRec: first, changed, fac:   F   F   0.49590164E+00
(PID.TID 0000.0001)  exf_GetFFieldsRec:      count0, count1:   1   2
(PID.TID 0000.0001) 
(PID.TID 0000.0001) 
(PID.TID 0000.0001)  exf_GetFFieldsRec: first, changed, fac:   F   F   0.49590164E+00
(PID.TID 0000.0001)  exf_GetFFieldsRec:      count0, count1:   1   2
(PID.TID 0000.0001) 
(PID.TID 0000.0001)  MDSREADFIELD: opening file: xx_uwind.0000000000.001.001.data
(PID.TID 0000.0001)  MDSREADFIELD: opening file: xx_uwind.0000000000.001.001.data
(PID.TID 0000.0001)  MDSREADFIELD: opening file: xx_vwind.0000000000.001.001.data
(PID.TID 0000.0001)  MDSREADFIELD: opening file: xx_vwind.0000000000.001.001.data
(PID.TID 0000.0001) 
(PID.TID 0000.0001)  exf_GetFFieldsRec: first, changed, fac:   F   F   0.49590164E+00
(PID.TID 0000.0001)  exf_GetFFieldsRec:      count0, count1:   1   2
(PID.TID 0000.0001) 
(PID.TID 0000.0001) 
(PID.TID 0000.0001)  exf_GetFFieldsRec: first, changed, fac:   F   F   0.49590164E+00
(PID.TID 0000.0001)  exf_GetFFieldsRec:      count0, count1:   1   2
(PID.TID 0000.0001) 
(PID.TID 0000.0001)  MDSREADFIELD: opening file: xx_atemp.0000000000.001.001.data
(PID.TID 0000.0001)  MDSREADFIELD: opening file: xx_atemp.0000000000.001.001.data
(PID.TID 0000.0001)  MDSREADFIELD: opening file: xx_aqh.0000000000.001.001.data
(PID.TID 0000.0001)  MDSREADFIELD: opening file: xx_aqh.0000000000.001.001.data
(PID.TID 0000.0001)  MDSREADFIELD: opening file: adxx_aqh.0000000000.001.001.data
(PID.TID 0000.0001)  MDSREADFIELD: opening file: adxx_aqh.0000000000.001.001.data
(PID.TID 0000.0001)  MDSREADFIELD: opening file: adxx_atemp.0000000000.001.001.data
(PID.TID 0000.0001)  MDSREADFIELD: opening file: adxx_atemp.0000000000.001.001.data
(PID.TID 0000.0001)  MDSREADFIELD: opening file: adxx_vwind.0000000000.001.001.data
(PID.TID 0000.0001)  MDSREADFIELD: opening file: adxx_vwind.0000000000.001.001.data
(PID.TID 0000.0001)  MDSREADFIELD: opening file: adxx_uwind.0000000000.001.001.data
(PID.TID 0000.0001)  MDSREADFIELD: opening file: adxx_uwind.0000000000.001.001.data
(PID.TID 0000.0001)  MDSREADVECTOR: opening file: tapelev2_1_the_main_loop_gsnm1.it0000.001.001.data
(PID.TID 0000.0001)  MDS_READ_RL_VEC: irec =  00000001   00015456
(PID.TID 0000.0001)  MDSREADVECTOR: opening file: tapelev2_2_the_main_loop_gtnm1.it0000.001.001.data
(PID.TID 0000.0001)  MDS_READ_RL_VEC: irec =  00000001   00015456
(PID.TID 0000.0001)  MDSREADVECTOR: opening file: tapelev2_3_the_main_loop_gunm1.it0000.001.001.data
(PID.TID 0000.0001)  MDS_READ_RL_VEC: irec =  00000001   00015456
(PID.TID 0000.0001)  MDSREADVECTOR: opening file: tapelev2_4_the_main_loop_gvnm1.it0000.001.001.data
(PID.TID 0000.0001)  MDS_READ_RL_VEC: irec =  00000001   00015456
(PID.TID 0000.0001)  MDSREADVECTOR: opening file: tapelev2_5_the_main_loop_theta.it0000.001.001.data
(PID.TID 0000.0001)  MDS_READ_RL_VEC: irec =  00000001   00015456
(PID.TID 0000.0001)  MDSREADVECTOR: opening file: tapelev2_6_the_main_loop_salt.it0000.001.001.data
(PID.TID 0000.0001)  MDS_READ_RL_VEC: irec =  00000001   00015456
(PID.TID 0000.0001)  MDSREADVECTOR: opening file: tapelev2_7_the_main_loop_uvel.it0000.001.001.data
(PID.TID 0000.0001)  MDS_READ_RL_VEC: irec =  00000001   00015456
(PID.TID 0000.0001)  MDSREADVECTOR: opening file: tapelev2_8_the_main_loop_vvel.it0000.001.001.data
(PID.TID 0000.0001)  MDS_READ_RL_VEC: irec =  00000001   00015456
(PID.TID 0000.0001)  MDSREADVECTOR: opening file: tapelev2_9_the_main_loop_wvel.it0000.001.001.data
(PID.TID 0000.0001)  MDS_READ_RL_VEC: irec =  00000001   00015456
(PID.TID 0000.0001)  MDSREADVECTOR: opening file: tapelev2_10_the_main_loop_etan.it0000.001.001.data
(PID.TID 0000.0001)  MDS_READ_RL_VEC: irec =  00000001   00000672
(PID.TID 0000.0001)  MDSREADVECTOR: opening file: tapelev2_11_the_main_loop_gu.it0000.001.001.data
(PID.TID 0000.0001)  MDS_READ_RL_VEC: irec =  00000001   00015456
(PID.TID 0000.0001)  MDSREADVECTOR: opening file: tapelev2_12_the_main_loop_gv.it0000.001.001.data
(PID.TID 0000.0001)  MDS_READ_RL_VEC: irec =  00000001   00015456
(PID.TID 0000.0001)  MDSREADVECTOR: opening file: tapelev2_13_the_main_loop_uveld.it0000.001.001.data
(PID.TID 0000.0001)  MDS_READ_RL_VEC: irec =  00000001   00015456
(PID.TID 0000.0001)  MDSREADVECTOR: opening file: tapelev2_14_the_main_loop_vveld.it0000.001.001.data
(PID.TID 0000.0001)  MDS_READ_RL_VEC: irec =  00000001   00015456
(PID.TID 0000.0001)  MDSREADVECTOR: opening file: tapelev2_15_the_main_loop_etanm1.it0000.001.001.data
(PID.TID 0000.0001)  MDS_READ_RL_VEC: irec =  00000001   00000672
(PID.TID 0000.0001)  MDSREADVECTOR: opening file: tapelev2_16_the_main_loop_unm1.it0000.001.001.data
(PID.TID 0000.0001)  MDS_READ_RL_VEC: irec =  00000001   00015456
(PID.TID 0000.0001)  MDSREADVECTOR: opening file: tapelev2_17_the_main_loop_vnm1.it0000.001.001.data
(PID.TID 0000.0001)  MDS_READ_RL_VEC: irec =  00000001   00015456
(PID.TID 0000.0001)  MDSREADVECTOR: opening file: tapelev2_18_the_main_loop_gucd.it0000.001.001.data
(PID.TID 0000.0001)  MDS_READ_RL_VEC: irec =  00000001   00015456
(PID.TID 0000.0001)  MDSREADVECTOR: opening file: tapelev2_19_the_main_loop_gvcd.it0000.001.001.data
(PID.TID 0000.0001)  MDS_READ_RL_VEC: irec =  00000001   00015456
(PID.TID 0000.0001)  MDSREADVECTOR: opening file: tapelev2_20_the_main_loop_etah.it0000.001.001.data
(PID.TID 0000.0001)  MDS_READ_RL_VEC: irec =  00000001   00000672
(PID.TID 0000.0001)  MDSREADVECTOR: opening file: tapelev2_21_the_main_loop_hdivflow.it0000.001.001.data
(PID.TID 0000.0001)  MDS_READ_RL_VEC: irec =  00000001   00000672
(PID.TID 0000.0001)  MDSREADVECTOR: opening file: tapelev2_22_the_main_loop_aqh0.it0000.001.001.data
(PID.TID 0000.0001)  MDS_READ_RL_VEC: irec =  00000001   00000672
(PID.TID 0000.0001)  MDSREADVECTOR: opening file: tapelev2_23_the_main_loop_aqh1.it0000.001.001.data
(PID.TID 0000.0001)  MDS_READ_RL_VEC: irec =  00000001   00000672
(PID.TID 0000.0001)  MDSREADVECTOR: opening file: tapelev2_24_the_main_loop_atemp0.it0000.001.001.data
(PID.TID 0000.0001)  MDS_READ_RL_VEC: irec =  00000001   00000672
(PID.TID 0000.0001)  MDSREADVECTOR: opening file: tapelev2_25_the_main_loop_atemp1.it0000.001.001.data
(PID.TID 0000.0001)  MDS_READ_RL_VEC: irec =  00000001   00000672
(PID.TID 0000.0001)  MDSREADVECTOR: opening file: tapelev2_26_the_main_loop_precip0.it0000.001.001.data
(PID.TID 0000.0001)  MDS_READ_RL_VEC: irec =  00000001   00000672
(PID.TID 0000.0001)  MDSREADVECTOR: opening file: tapelev2_27_the_main_loop_precip1.it0000.001.001.data
(PID.TID 0000.0001)  MDS_READ_RL_VEC: irec =  00000001   00000672
(PID.TID 0000.0001)  MDSREADVECTOR: opening file: tapelev2_28_the_main_loop_lwflux0.it0000.001.001.data
(PID.TID 0000.0001)  MDS_READ_RL_VEC: irec =  00000001   00000672
(PID.TID 0000.0001)  MDSREADVECTOR: opening file: tapelev2_29_the_main_loop_lwflux1.it0000.001.001.data
(PID.TID 0000.0001)  MDS_READ_RL_VEC: irec =  00000001   00000672
(PID.TID 0000.0001)  MDSREADVECTOR: opening file: tapelev2_30_the_main_loop_swflux0.it0000.001.001.data
(PID.TID 0000.0001)  MDS_READ_RL_VEC: irec =  00000001   00000672
(PID.TID 0000.0001)  MDSREADVECTOR: opening file: tapelev2_31_the_main_loop_swflux1.it0000.001.001.data
(PID.TID 0000.0001)  MDS_READ_RL_VEC: irec =  00000001   00000672
(PID.TID 0000.0001)  MDSREADVECTOR: opening file: tapelev2_32_the_main_loop_evap.it0000.001.001.data
(PID.TID 0000.0001)  MDS_READ_RL_VEC: irec =  00000001   00000672
(PID.TID 0000.0001)  MDSREADVECTOR: opening file: tapelev2_33_the_main_loop_uwind0.it0000.001.001.data
(PID.TID 0000.0001)  MDS_READ_RL_VEC: irec =  00000001   00000672
(PID.TID 0000.0001)  MDSREADVECTOR: opening file: tapelev2_34_the_main_loop_uwind1.it0000.001.001.data
(PID.TID 0000.0001)  MDS_READ_RL_VEC: irec =  00000001   00000672
(PID.TID 0000.0001)  MDSREADVECTOR: opening file: tapelev2_35_the_main_loop_vwind0.it0000.001.001.data
(PID.TID 0000.0001)  MDS_READ_RL_VEC: irec =  00000001   00000672
(PID.TID 0000.0001)  MDSREADVECTOR: opening file: tapelev2_36_the_main_loop_vwind1.it0000.001.001.data
(PID.TID 0000.0001)  MDS_READ_RL_VEC: irec =  00000001   00000672
(PID.TID 0000.0001) 
(PID.TID 0000.0001)  exf_GetFFieldsRec: first, changed, fac:   T   F   0.50000000E+00
(PID.TID 0000.0001)  exf_GetFFieldsRec:      count0, count1:   1   2
(PID.TID 0000.0001) 
(PID.TID 0000.0001)  MDSREADFIELD: opening global file: u10m.labsea79
(PID.TID 0000.0001)  MDSREADFIELD: opening global file: u10m.labsea79
(PID.TID 0000.0001) 
(PID.TID 0000.0001)  exf_GetFFieldsRec: first, changed, fac:   T   F   0.50000000E+00
(PID.TID 0000.0001)  exf_GetFFieldsRec:      count0, count1:   1   2
(PID.TID 0000.0001) 
(PID.TID 0000.0001)  MDSREADFIELD: opening global file: v10m.labsea79
(PID.TID 0000.0001)  MDSREADFIELD: opening global file: v10m.labsea79
(PID.TID 0000.0001)  MDSREADFIELD: opening file: xx_uwind.0000000000.001.001.data
(PID.TID 0000.0001)  MDSREADFIELD: opening file: xx_uwind.0000000000.001.001.data
(PID.TID 0000.0001)  MDSREADFIELD: opening file: xx_vwind.0000000000.001.001.data
(PID.TID 0000.0001)  MDSREADFIELD: opening file: xx_vwind.0000000000.001.001.data
(PID.TID 0000.0001) 
(PID.TID 0000.0001)  exf_GetFFieldsRec: first, changed, fac:   T   F   0.50000000E+00
(PID.TID 0000.0001)  exf_GetFFieldsRec:      count0, count1:   1   2
(PID.TID 0000.0001) 
(PID.TID 0000.0001)  MDSREADFIELD: opening global file: tair.labsea1979
(PID.TID 0000.0001)  MDSREADFIELD: opening global file: tair.labsea1979
(PID.TID 0000.0001) 
(PID.TID 0000.0001)  exf_GetFFieldsRec: first, changed, fac:   T   F   0.50000000E+00
(PID.TID 0000.0001)  exf_GetFFieldsRec:      count0, count1:   1   2
(PID.TID 0000.0001) 
(PID.TID 0000.0001)  MDSREADFIELD: opening global file: qa.labsea1979
(PID.TID 0000.0001)  MDSREADFIELD: opening global file: qa.labsea1979
(PID.TID 0000.0001) 
(PID.TID 0000.0001)  exf_GetFFieldsRec: first, changed, fac:   T   F   0.50000000E+00
(PID.TID 0000.0001)  exf_GetFFieldsRec:      count0, count1:   1   2
(PID.TID 0000.0001) 
(PID.TID 0000.0001)  MDSREADFIELD: opening global file: prate.labsea1979
(PID.TID 0000.0001)  MDSREADFIELD: opening global file: prate.labsea1979
(PID.TID 0000.0001)  MDSREADFIELD: opening file: xx_atemp.0000000000.001.001.data
(PID.TID 0000.0001)  MDSREADFIELD: opening file: xx_atemp.0000000000.001.001.data
(PID.TID 0000.0001)  MDSREADFIELD: opening file: xx_aqh.0000000000.001.001.data
(PID.TID 0000.0001)  MDSREADFIELD: opening file: xx_aqh.0000000000.001.001.data
(PID.TID 0000.0001) 
(PID.TID 0000.0001)  exf_GetFFieldsRec: first, changed, fac:   T   F   0.50000000E+00
(PID.TID 0000.0001)  exf_GetFFieldsRec:      count0, count1:   1   2
(PID.TID 0000.0001) 
(PID.TID 0000.0001)  MDSREADFIELD: opening global file: fsh.labsea1979
(PID.TID 0000.0001)  MDSREADFIELD: opening global file: fsh.labsea1979
(PID.TID 0000.0001) 
(PID.TID 0000.0001)  exf_GetFFieldsRec: first, changed, fac:   T   F   0.50000000E+00
(PID.TID 0000.0001)  exf_GetFFieldsRec:      count0, count1:   1   2
(PID.TID 0000.0001) 
(PID.TID 0000.0001)  MDSREADFIELD: opening global file: flo.labsea1979
(PID.TID 0000.0001)  MDSREADFIELD: opening global file: flo.labsea1979
 cg2d: Sum(rhs),rhsMax =   1.95590071916385E-16  1.00807802167630E+00
(PID.TID 0000.0001)                    cg2d_init_res =    1.61521300655486E+00
(PID.TID 0000.0001)                       cg2d_iters =    47
(PID.TID 0000.0001)                         cg2d_res =    5.70138941994743E-14
(PID.TID 0000.0001) 
(PID.TID 0000.0001)  exf_GetFFieldsRec: first, changed, fac:   F   F   0.49863388E+00
(PID.TID 0000.0001)  exf_GetFFieldsRec:      count0, count1:   1   2
(PID.TID 0000.0001) 
(PID.TID 0000.0001) 
(PID.TID 0000.0001)  exf_GetFFieldsRec: first, changed, fac:   F   F   0.49863388E+00
(PID.TID 0000.0001)  exf_GetFFieldsRec:      count0, count1:   1   2
(PID.TID 0000.0001) 
(PID.TID 0000.0001)  MDSREADFIELD: opening file: xx_uwind.0000000000.001.001.data
(PID.TID 0000.0001)  MDSREADFIELD: opening file: xx_uwind.0000000000.001.001.data
(PID.TID 0000.0001)  MDSREADFIELD: opening file: xx_vwind.0000000000.001.001.data
(PID.TID 0000.0001)  MDSREADFIELD: opening file: xx_vwind.0000000000.001.001.data
(PID.TID 0000.0001) 
(PID.TID 0000.0001)  exf_GetFFieldsRec: first, changed, fac:   F   F   0.49863388E+00
(PID.TID 0000.0001)  exf_GetFFieldsRec:      count0, count1:   1   2
(PID.TID 0000.0001) 
(PID.TID 0000.0001) 
(PID.TID 0000.0001)  exf_GetFFieldsRec: first, changed, fac:   F   F   0.49863388E+00
(PID.TID 0000.0001)  exf_GetFFieldsRec:      count0, count1:   1   2
(PID.TID 0000.0001) 
(PID.TID 0000.0001) 
(PID.TID 0000.0001)  exf_GetFFieldsRec: first, changed, fac:   F   F   0.49863388E+00
(PID.TID 0000.0001)  exf_GetFFieldsRec:      count0, count1:   1   2
(PID.TID 0000.0001) 
(PID.TID 0000.0001)  MDSREADFIELD: opening file: xx_atemp.0000000000.001.001.data
(PID.TID 0000.0001)  MDSREADFIELD: opening file: xx_atemp.0000000000.001.001.data
(PID.TID 0000.0001)  MDSREADFIELD: opening file: xx_aqh.0000000000.001.001.data
(PID.TID 0000.0001)  MDSREADFIELD: opening file: xx_aqh.0000000000.001.001.data
(PID.TID 0000.0001) 
(PID.TID 0000.0001)  exf_GetFFieldsRec: first, changed, fac:   F   F   0.49863388E+00
(PID.TID 0000.0001)  exf_GetFFieldsRec:      count0, count1:   1   2
(PID.TID 0000.0001) 
(PID.TID 0000.0001) 
(PID.TID 0000.0001)  exf_GetFFieldsRec: first, changed, fac:   F   F   0.49863388E+00
(PID.TID 0000.0001)  exf_GetFFieldsRec:      count0, count1:   1   2
(PID.TID 0000.0001) 
 cg2d: Sum(rhs),rhsMax =   7.37474317724640E-16  1.23585471329616E+00
(PID.TID 0000.0001)                    cg2d_init_res =    3.48544561450945E-01
(PID.TID 0000.0001)                       cg2d_iters =    45
(PID.TID 0000.0001)                         cg2d_res =    6.49477568692734E-14
(PID.TID 0000.0001) 
(PID.TID 0000.0001)  exf_GetFFieldsRec: first, changed, fac:   F   F   0.49726776E+00
(PID.TID 0000.0001)  exf_GetFFieldsRec:      count0, count1:   1   2
(PID.TID 0000.0001) 
(PID.TID 0000.0001) 
(PID.TID 0000.0001)  exf_GetFFieldsRec: first, changed, fac:   F   F   0.49726776E+00
(PID.TID 0000.0001)  exf_GetFFieldsRec:      count0, count1:   1   2
(PID.TID 0000.0001) 
(PID.TID 0000.0001)  MDSREADFIELD: opening file: xx_uwind.0000000000.001.001.data
(PID.TID 0000.0001)  MDSREADFIELD: opening file: xx_uwind.0000000000.001.001.data
(PID.TID 0000.0001)  MDSREADFIELD: opening file: xx_vwind.0000000000.001.001.data
(PID.TID 0000.0001)  MDSREADFIELD: opening file: xx_vwind.0000000000.001.001.data
(PID.TID 0000.0001) 
(PID.TID 0000.0001)  exf_GetFFieldsRec: first, changed, fac:   F   F   0.49726776E+00
(PID.TID 0000.0001)  exf_GetFFieldsRec:      count0, count1:   1   2
(PID.TID 0000.0001) 
(PID.TID 0000.0001) 
(PID.TID 0000.0001)  exf_GetFFieldsRec: first, changed, fac:   F   F   0.49726776E+00
(PID.TID 0000.0001)  exf_GetFFieldsRec:      count0, count1:   1   2
(PID.TID 0000.0001) 
(PID.TID 0000.0001) 
(PID.TID 0000.0001)  exf_GetFFieldsRec: first, changed, fac:   F   F   0.49726776E+00
(PID.TID 0000.0001)  exf_GetFFieldsRec:      count0, count1:   1   2
(PID.TID 0000.0001) 
(PID.TID 0000.0001)  MDSREADFIELD: opening file: xx_atemp.0000000000.001.001.data
(PID.TID 0000.0001)  MDSREADFIELD: opening file: xx_atemp.0000000000.001.001.data
(PID.TID 0000.0001)  MDSREADFIELD: opening file: xx_aqh.0000000000.001.001.data
(PID.TID 0000.0001)  MDSREADFIELD: opening file: xx_aqh.0000000000.001.001.data
(PID.TID 0000.0001) 
(PID.TID 0000.0001)  exf_GetFFieldsRec: first, changed, fac:   F   F   0.49726776E+00
(PID.TID 0000.0001)  exf_GetFFieldsRec:      count0, count1:   1   2
(PID.TID 0000.0001) 
(PID.TID 0000.0001) 
(PID.TID 0000.0001)  exf_GetFFieldsRec: first, changed, fac:   F   F   0.49726776E+00
(PID.TID 0000.0001)  exf_GetFFieldsRec:      count0, count1:   1   2
(PID.TID 0000.0001) 
 cg2d: Sum(rhs),rhsMax =   6.20553955443803E-15  1.25438452343302E+00
(PID.TID 0000.0001)                    cg2d_init_res =    2.36078257971889E-01
(PID.TID 0000.0001)                       cg2d_iters =    45
(PID.TID 0000.0001)                         cg2d_res =    6.62546240702124E-14
(PID.TID 0000.0001) 
(PID.TID 0000.0001)  exf_GetFFieldsRec: first, changed, fac:   F   F   0.49590164E+00
(PID.TID 0000.0001)  exf_GetFFieldsRec:      count0, count1:   1   2
(PID.TID 0000.0001) 
(PID.TID 0000.0001) 
(PID.TID 0000.0001)  exf_GetFFieldsRec: first, changed, fac:   F   F   0.49590164E+00
(PID.TID 0000.0001)  exf_GetFFieldsRec:      count0, count1:   1   2
(PID.TID 0000.0001) 
(PID.TID 0000.0001)  MDSREADFIELD: opening file: xx_uwind.0000000000.001.001.data
(PID.TID 0000.0001)  MDSREADFIELD: opening file: xx_uwind.0000000000.001.001.data
(PID.TID 0000.0001)  MDSREADFIELD: opening file: xx_vwind.0000000000.001.001.data
(PID.TID 0000.0001)  MDSREADFIELD: opening file: xx_vwind.0000000000.001.001.data
(PID.TID 0000.0001) 
(PID.TID 0000.0001)  exf_GetFFieldsRec: first, changed, fac:   F   F   0.49590164E+00
(PID.TID 0000.0001)  exf_GetFFieldsRec:      count0, count1:   1   2
(PID.TID 0000.0001) 
(PID.TID 0000.0001) 
(PID.TID 0000.0001)  exf_GetFFieldsRec: first, changed, fac:   F   F   0.49590164E+00
(PID.TID 0000.0001)  exf_GetFFieldsRec:      count0, count1:   1   2
(PID.TID 0000.0001) 
(PID.TID 0000.0001) 
(PID.TID 0000.0001)  exf_GetFFieldsRec: first, changed, fac:   F   F   0.49590164E+00
(PID.TID 0000.0001)  exf_GetFFieldsRec:      count0, count1:   1   2
(PID.TID 0000.0001) 
(PID.TID 0000.0001)  MDSREADFIELD: opening file: xx_atemp.0000000000.001.001.data
(PID.TID 0000.0001)  MDSREADFIELD: opening file: xx_atemp.0000000000.001.001.data
(PID.TID 0000.0001)  MDSREADFIELD: opening file: xx_aqh.0000000000.001.001.data
(PID.TID 0000.0001)  MDSREADFIELD: opening file: xx_aqh.0000000000.001.001.data
(PID.TID 0000.0001) 
(PID.TID 0000.0001)  exf_GetFFieldsRec: first, changed, fac:   F   F   0.49590164E+00
(PID.TID 0000.0001)  exf_GetFFieldsRec:      count0, count1:   1   2
(PID.TID 0000.0001) 
(PID.TID 0000.0001) 
(PID.TID 0000.0001)  exf_GetFFieldsRec: first, changed, fac:   F   F   0.49590164E+00
(PID.TID 0000.0001)  exf_GetFFieldsRec:      count0, count1:   1   2
(PID.TID 0000.0001) 
 cg2d: Sum(rhs),rhsMax =   3.20620266447413E-15  1.25494322187447E+00
(PID.TID 0000.0001)                    cg2d_init_res =    1.82553144014713E-01
(PID.TID 0000.0001)                       cg2d_iters =    45
(PID.TID 0000.0001)                         cg2d_res =    5.12415163303431E-14
(PID.TID 0000.0001) 
(PID.TID 0000.0001)  exf_GetFFieldsRec: first, changed, fac:   F   F   0.49726776E+00
(PID.TID 0000.0001)  exf_GetFFieldsRec:      count0, count1:   1   2
(PID.TID 0000.0001) 
(PID.TID 0000.0001) 
(PID.TID 0000.0001)  exf_GetFFieldsRec: first, changed, fac:   F   F   0.49726776E+00
(PID.TID 0000.0001)  exf_GetFFieldsRec:      count0, count1:   1   2
(PID.TID 0000.0001) 
(PID.TID 0000.0001)  MDSREADFIELD: opening file: xx_uwind.0000000000.001.001.data
(PID.TID 0000.0001)  MDSREADFIELD: opening file: xx_uwind.0000000000.001.001.data
(PID.TID 0000.0001)  MDSREADFIELD: opening file: xx_vwind.0000000000.001.001.data
(PID.TID 0000.0001)  MDSREADFIELD: opening file: xx_vwind.0000000000.001.001.data
(PID.TID 0000.0001) 
(PID.TID 0000.0001)  exf_GetFFieldsRec: first, changed, fac:   F   F   0.49726776E+00
(PID.TID 0000.0001)  exf_GetFFieldsRec:      count0, count1:   1   2
(PID.TID 0000.0001) 
(PID.TID 0000.0001) 
(PID.TID 0000.0001)  exf_GetFFieldsRec: first, changed, fac:   F   F   0.49726776E+00
(PID.TID 0000.0001)  exf_GetFFieldsRec:      count0, count1:   1   2
(PID.TID 0000.0001) 
(PID.TID 0000.0001) 
(PID.TID 0000.0001)  exf_GetFFieldsRec: first, changed, fac:   F   F   0.49726776E+00
(PID.TID 0000.0001)  exf_GetFFieldsRec:      count0, count1:   1   2
(PID.TID 0000.0001) 
(PID.TID 0000.0001)  MDSREADFIELD: opening file: xx_atemp.0000000000.001.001.data
(PID.TID 0000.0001)  MDSREADFIELD: opening file: xx_atemp.0000000000.001.001.data
(PID.TID 0000.0001)  MDSREADFIELD: opening file: xx_aqh.0000000000.001.001.data
(PID.TID 0000.0001)  MDSREADFIELD: opening file: xx_aqh.0000000000.001.001.data
(PID.TID 0000.0001) 
(PID.TID 0000.0001)  exf_GetFFieldsRec: first, changed, fac:   F   F   0.49726776E+00
(PID.TID 0000.0001)  exf_GetFFieldsRec:      count0, count1:   1   2
(PID.TID 0000.0001) 
(PID.TID 0000.0001) 
(PID.TID 0000.0001)  exf_GetFFieldsRec: first, changed, fac:   F   F   0.49726776E+00
(PID.TID 0000.0001)  exf_GetFFieldsRec:      count0, count1:   1   2
(PID.TID 0000.0001) 
 cg2d: Sum(rhs),rhsMax =  -2.41018142943528E-16  1.96878085713147E-04
(PID.TID 0000.0001) 
(PID.TID 0000.0001)  exf_GetFFieldsRec: first, changed, fac:   F   F   0.49726776E+00
(PID.TID 0000.0001)  exf_GetFFieldsRec:      count0, count1:   1   2
(PID.TID 0000.0001) 
(PID.TID 0000.0001) 
(PID.TID 0000.0001)  exf_GetFFieldsRec: first, changed, fac:   F   F   0.49726776E+00
(PID.TID 0000.0001)  exf_GetFFieldsRec:      count0, count1:   1   2
(PID.TID 0000.0001) 
(PID.TID 0000.0001)  MDSREADFIELD: opening file: xx_uwind.0000000000.001.001.data
(PID.TID 0000.0001)  MDSREADFIELD: opening file: xx_uwind.0000000000.001.001.data
(PID.TID 0000.0001)  MDSREADFIELD: opening file: xx_vwind.0000000000.001.001.data
(PID.TID 0000.0001)  MDSREADFIELD: opening file: xx_vwind.0000000000.001.001.data
(PID.TID 0000.0001) 
(PID.TID 0000.0001)  exf_GetFFieldsRec: first, changed, fac:   F   F   0.49726776E+00
(PID.TID 0000.0001)  exf_GetFFieldsRec:      count0, count1:   1   2
(PID.TID 0000.0001) 
(PID.TID 0000.0001) 
(PID.TID 0000.0001)  exf_GetFFieldsRec: first, changed, fac:   F   F   0.49726776E+00
(PID.TID 0000.0001)  exf_GetFFieldsRec:      count0, count1:   1   2
(PID.TID 0000.0001) 
(PID.TID 0000.0001) 
(PID.TID 0000.0001)  exf_GetFFieldsRec: first, changed, fac:   F   F   0.49726776E+00
(PID.TID 0000.0001)  exf_GetFFieldsRec:      count0, count1:   1   2
(PID.TID 0000.0001) 
(PID.TID 0000.0001)  MDSREADFIELD: opening file: xx_atemp.0000000000.001.001.data
(PID.TID 0000.0001)  MDSREADFIELD: opening file: xx_atemp.0000000000.001.001.data
(PID.TID 0000.0001)  MDSREADFIELD: opening file: xx_aqh.0000000000.001.001.data
(PID.TID 0000.0001)  MDSREADFIELD: opening file: xx_aqh.0000000000.001.001.data
(PID.TID 0000.0001) 
(PID.TID 0000.0001)  exf_GetFFieldsRec: first, changed, fac:   F   F   0.49726776E+00
(PID.TID 0000.0001)  exf_GetFFieldsRec:      count0, count1:   1   2
(PID.TID 0000.0001) 
(PID.TID 0000.0001) 
(PID.TID 0000.0001)  exf_GetFFieldsRec: first, changed, fac:   F   F   0.49726776E+00
(PID.TID 0000.0001)  exf_GetFFieldsRec:      count0, count1:   1   2
(PID.TID 0000.0001) 
(PID.TID 0000.0001) 
(PID.TID 0000.0001)  exf_GetFFieldsRec: first, changed, fac:   F   F   0.49726776E+00
(PID.TID 0000.0001)  exf_GetFFieldsRec:      count0, count1:   1   2
(PID.TID 0000.0001) 
(PID.TID 0000.0001) 
(PID.TID 0000.0001)  exf_GetFFieldsRec: first, changed, fac:   F   F   0.49726776E+00
(PID.TID 0000.0001)  exf_GetFFieldsRec:      count0, count1:   1   2
(PID.TID 0000.0001) 
(PID.TID 0000.0001)  MDSREADFIELD: opening file: xx_uwind.0000000000.001.001.data
(PID.TID 0000.0001)  MDSREADFIELD: opening file: xx_uwind.0000000000.001.001.data
(PID.TID 0000.0001)  MDSREADFIELD: opening file: xx_vwind.0000000000.001.001.data
(PID.TID 0000.0001)  MDSREADFIELD: opening file: xx_vwind.0000000000.001.001.data
(PID.TID 0000.0001) 
(PID.TID 0000.0001)  exf_GetFFieldsRec: first, changed, fac:   F   F   0.49726776E+00
(PID.TID 0000.0001)  exf_GetFFieldsRec:      count0, count1:   1   2
(PID.TID 0000.0001) 
(PID.TID 0000.0001) 
(PID.TID 0000.0001)  exf_GetFFieldsRec: first, changed, fac:   F   F   0.49726776E+00
(PID.TID 0000.0001)  exf_GetFFieldsRec:      count0, count1:   1   2
(PID.TID 0000.0001) 
(PID.TID 0000.0001)  MDSREADFIELD: opening file: xx_atemp.0000000000.001.001.data
(PID.TID 0000.0001)  MDSREADFIELD: opening file: xx_atemp.0000000000.001.001.data
(PID.TID 0000.0001)  MDSREADFIELD: opening file: xx_aqh.0000000000.001.001.data
(PID.TID 0000.0001)  MDSREADFIELD: opening file: xx_aqh.0000000000.001.001.data
(PID.TID 0000.0001)  MDSREADFIELD: opening file: adxx_aqh.0000000000.001.001.data
(PID.TID 0000.0001)  MDSREADFIELD: opening file: adxx_aqh.0000000000.001.001.data
(PID.TID 0000.0001)  MDSREADFIELD: opening file: adxx_atemp.0000000000.001.001.data
(PID.TID 0000.0001)  MDSREADFIELD: opening file: adxx_atemp.0000000000.001.001.data
(PID.TID 0000.0001)  MDSREADFIELD: opening file: adxx_vwind.0000000000.001.001.data
(PID.TID 0000.0001)  MDSREADFIELD: opening file: adxx_vwind.0000000000.001.001.data
(PID.TID 0000.0001)  MDSREADFIELD: opening file: adxx_uwind.0000000000.001.001.data
(PID.TID 0000.0001)  MDSREADFIELD: opening file: adxx_uwind.0000000000.001.001.data
(PID.TID 0000.0001)  MDSREADVECTOR: opening file: tapelev2_1_the_main_loop_gsnm1.it0000.001.001.data
(PID.TID 0000.0001)  MDS_READ_RL_VEC: irec =  00000001   00015456
(PID.TID 0000.0001)  MDSREADVECTOR: opening file: tapelev2_2_the_main_loop_gtnm1.it0000.001.001.data
(PID.TID 0000.0001)  MDS_READ_RL_VEC: irec =  00000001   00015456
(PID.TID 0000.0001)  MDSREADVECTOR: opening file: tapelev2_3_the_main_loop_gunm1.it0000.001.001.data
(PID.TID 0000.0001)  MDS_READ_RL_VEC: irec =  00000001   00015456
(PID.TID 0000.0001)  MDSREADVECTOR: opening file: tapelev2_4_the_main_loop_gvnm1.it0000.001.001.data
(PID.TID 0000.0001)  MDS_READ_RL_VEC: irec =  00000001   00015456
(PID.TID 0000.0001)  MDSREADVECTOR: opening file: tapelev2_5_the_main_loop_theta.it0000.001.001.data
(PID.TID 0000.0001)  MDS_READ_RL_VEC: irec =  00000001   00015456
(PID.TID 0000.0001)  MDSREADVECTOR: opening file: tapelev2_6_the_main_loop_salt.it0000.001.001.data
(PID.TID 0000.0001)  MDS_READ_RL_VEC: irec =  00000001   00015456
(PID.TID 0000.0001)  MDSREADVECTOR: opening file: tapelev2_7_the_main_loop_uvel.it0000.001.001.data
(PID.TID 0000.0001)  MDS_READ_RL_VEC: irec =  00000001   00015456
(PID.TID 0000.0001)  MDSREADVECTOR: opening file: tapelev2_8_the_main_loop_vvel.it0000.001.001.data
(PID.TID 0000.0001)  MDS_READ_RL_VEC: irec =  00000001   00015456
(PID.TID 0000.0001)  MDSREADVECTOR: opening file: tapelev2_9_the_main_loop_wvel.it0000.001.001.data
(PID.TID 0000.0001)  MDS_READ_RL_VEC: irec =  00000001   00015456
(PID.TID 0000.0001)  MDSREADVECTOR: opening file: tapelev2_10_the_main_loop_etan.it0000.001.001.data
(PID.TID 0000.0001)  MDS_READ_RL_VEC: irec =  00000001   00000672
(PID.TID 0000.0001)  MDSREADVECTOR: opening file: tapelev2_11_the_main_loop_gu.it0000.001.001.data
(PID.TID 0000.0001)  MDS_READ_RL_VEC: irec =  00000001   00015456
(PID.TID 0000.0001)  MDSREADVECTOR: opening file: tapelev2_12_the_main_loop_gv.it0000.001.001.data
(PID.TID 0000.0001)  MDS_READ_RL_VEC: irec =  00000001   00015456
(PID.TID 0000.0001)  MDSREADVECTOR: opening file: tapelev2_13_the_main_loop_uveld.it0000.001.001.data
(PID.TID 0000.0001)  MDS_READ_RL_VEC: irec =  00000001   00015456
(PID.TID 0000.0001)  MDSREADVECTOR: opening file: tapelev2_14_the_main_loop_vveld.it0000.001.001.data
(PID.TID 0000.0001)  MDS_READ_RL_VEC: irec =  00000001   00015456
(PID.TID 0000.0001)  MDSREADVECTOR: opening file: tapelev2_15_the_main_loop_etanm1.it0000.001.001.data
(PID.TID 0000.0001)  MDS_READ_RL_VEC: irec =  00000001   00000672
(PID.TID 0000.0001)  MDSREADVECTOR: opening file: tapelev2_16_the_main_loop_unm1.it0000.001.001.data
(PID.TID 0000.0001)  MDS_READ_RL_VEC: irec =  00000001   00015456
(PID.TID 0000.0001)  MDSREADVECTOR: opening file: tapelev2_17_the_main_loop_vnm1.it0000.001.001.data
(PID.TID 0000.0001)  MDS_READ_RL_VEC: irec =  00000001   00015456
(PID.TID 0000.0001)  MDSREADVECTOR: opening file: tapelev2_18_the_main_loop_gucd.it0000.001.001.data
(PID.TID 0000.0001)  MDS_READ_RL_VEC: irec =  00000001   00015456
(PID.TID 0000.0001)  MDSREADVECTOR: opening file: tapelev2_19_the_main_loop_gvcd.it0000.001.001.data
(PID.TID 0000.0001)  MDS_READ_RL_VEC: irec =  00000001   00015456
(PID.TID 0000.0001)  MDSREADVECTOR: opening file: tapelev2_20_the_main_loop_etah.it0000.001.001.data
(PID.TID 0000.0001)  MDS_READ_RL_VEC: irec =  00000001   00000672
(PID.TID 0000.0001)  MDSREADVECTOR: opening file: tapelev2_21_the_main_loop_hdivflow.it0000.001.001.data
(PID.TID 0000.0001)  MDS_READ_RL_VEC: irec =  00000001   00000672
(PID.TID 0000.0001)  MDSREADVECTOR: opening file: tapelev2_22_the_main_loop_aqh0.it0000.001.001.data
(PID.TID 0000.0001)  MDS_READ_RL_VEC: irec =  00000001   00000672
(PID.TID 0000.0001)  MDSREADVECTOR: opening file: tapelev2_23_the_main_loop_aqh1.it0000.001.001.data
(PID.TID 0000.0001)  MDS_READ_RL_VEC: irec =  00000001   00000672
(PID.TID 0000.0001)  MDSREADVECTOR: opening file: tapelev2_24_the_main_loop_atemp0.it0000.001.001.data
(PID.TID 0000.0001)  MDS_READ_RL_VEC: irec =  00000001   00000672
(PID.TID 0000.0001)  MDSREADVECTOR: opening file: tapelev2_25_the_main_loop_atemp1.it0000.001.001.data
(PID.TID 0000.0001)  MDS_READ_RL_VEC: irec =  00000001   00000672
(PID.TID 0000.0001)  MDSREADVECTOR: opening file: tapelev2_26_the_main_loop_precip0.it0000.001.001.data
(PID.TID 0000.0001)  MDS_READ_RL_VEC: irec =  00000001   00000672
(PID.TID 0000.0001)  MDSREADVECTOR: opening file: tapelev2_27_the_main_loop_precip1.it0000.001.001.data
(PID.TID 0000.0001)  MDS_READ_RL_VEC: irec =  00000001   00000672
(PID.TID 0000.0001)  MDSREADVECTOR: opening file: tapelev2_28_the_main_loop_lwflux0.it0000.001.001.data
(PID.TID 0000.0001)  MDS_READ_RL_VEC: irec =  00000001   00000672
(PID.TID 0000.0001)  MDSREADVECTOR: opening file: tapelev2_29_the_main_loop_lwflux1.it0000.001.001.data
(PID.TID 0000.0001)  MDS_READ_RL_VEC: irec =  00000001   00000672
(PID.TID 0000.0001)  MDSREADVECTOR: opening file: tapelev2_30_the_main_loop_swflux0.it0000.001.001.data
(PID.TID 0000.0001)  MDS_READ_RL_VEC: irec =  00000001   00000672
(PID.TID 0000.0001)  MDSREADVECTOR: opening file: tapelev2_31_the_main_loop_swflux1.it0000.001.001.data
(PID.TID 0000.0001)  MDS_READ_RL_VEC: irec =  00000001   00000672
(PID.TID 0000.0001)  MDSREADVECTOR: opening file: tapelev2_32_the_main_loop_evap.it0000.001.001.data
(PID.TID 0000.0001)  MDS_READ_RL_VEC: irec =  00000001   00000672
(PID.TID 0000.0001)  MDSREADVECTOR: opening file: tapelev2_33_the_main_loop_uwind0.it0000.001.001.data
(PID.TID 0000.0001)  MDS_READ_RL_VEC: irec =  00000001   00000672
(PID.TID 0000.0001)  MDSREADVECTOR: opening file: tapelev2_34_the_main_loop_uwind1.it0000.001.001.data
(PID.TID 0000.0001)  MDS_READ_RL_VEC: irec =  00000001   00000672
(PID.TID 0000.0001)  MDSREADVECTOR: opening file: tapelev2_35_the_main_loop_vwind0.it0000.001.001.data
(PID.TID 0000.0001)  MDS_READ_RL_VEC: irec =  00000001   00000672
(PID.TID 0000.0001)  MDSREADVECTOR: opening file: tapelev2_36_the_main_loop_vwind1.it0000.001.001.data
(PID.TID 0000.0001)  MDS_READ_RL_VEC: irec =  00000001   00000672
(PID.TID 0000.0001) 
(PID.TID 0000.0001)  exf_GetFFieldsRec: first, changed, fac:   T   F   0.50000000E+00
(PID.TID 0000.0001)  exf_GetFFieldsRec:      count0, count1:   1   2
(PID.TID 0000.0001) 
(PID.TID 0000.0001)  MDSREADFIELD: opening global file: u10m.labsea79
(PID.TID 0000.0001)  MDSREADFIELD: opening global file: u10m.labsea79
(PID.TID 0000.0001) 
(PID.TID 0000.0001)  exf_GetFFieldsRec: first, changed, fac:   T   F   0.50000000E+00
(PID.TID 0000.0001)  exf_GetFFieldsRec:      count0, count1:   1   2
(PID.TID 0000.0001) 
(PID.TID 0000.0001)  MDSREADFIELD: opening global file: v10m.labsea79
(PID.TID 0000.0001)  MDSREADFIELD: opening global file: v10m.labsea79
(PID.TID 0000.0001)  MDSREADFIELD: opening file: xx_uwind.0000000000.001.001.data
(PID.TID 0000.0001)  MDSREADFIELD: opening file: xx_uwind.0000000000.001.001.data
(PID.TID 0000.0001)  MDSREADFIELD: opening file: xx_vwind.0000000000.001.001.data
(PID.TID 0000.0001)  MDSREADFIELD: opening file: xx_vwind.0000000000.001.001.data
(PID.TID 0000.0001) 
(PID.TID 0000.0001)  exf_GetFFieldsRec: first, changed, fac:   T   F   0.50000000E+00
(PID.TID 0000.0001)  exf_GetFFieldsRec:      count0, count1:   1   2
(PID.TID 0000.0001) 
(PID.TID 0000.0001)  MDSREADFIELD: opening global file: tair.labsea1979
(PID.TID 0000.0001)  MDSREADFIELD: opening global file: tair.labsea1979
(PID.TID 0000.0001) 
(PID.TID 0000.0001)  exf_GetFFieldsRec: first, changed, fac:   T   F   0.50000000E+00
(PID.TID 0000.0001)  exf_GetFFieldsRec:      count0, count1:   1   2
(PID.TID 0000.0001) 
(PID.TID 0000.0001)  MDSREADFIELD: opening global file: qa.labsea1979
(PID.TID 0000.0001)  MDSREADFIELD: opening global file: qa.labsea1979
(PID.TID 0000.0001) 
(PID.TID 0000.0001)  exf_GetFFieldsRec: first, changed, fac:   T   F   0.50000000E+00
(PID.TID 0000.0001)  exf_GetFFieldsRec:      count0, count1:   1   2
(PID.TID 0000.0001) 
(PID.TID 0000.0001)  MDSREADFIELD: opening global file: prate.labsea1979
(PID.TID 0000.0001)  MDSREADFIELD: opening global file: prate.labsea1979
(PID.TID 0000.0001)  MDSREADFIELD: opening file: xx_atemp.0000000000.001.001.data
(PID.TID 0000.0001)  MDSREADFIELD: opening file: xx_atemp.0000000000.001.001.data
(PID.TID 0000.0001)  MDSREADFIELD: opening file: xx_aqh.0000000000.001.001.data
(PID.TID 0000.0001)  MDSREADFIELD: opening file: xx_aqh.0000000000.001.001.data
(PID.TID 0000.0001) 
(PID.TID 0000.0001)  exf_GetFFieldsRec: first, changed, fac:   T   F   0.50000000E+00
(PID.TID 0000.0001)  exf_GetFFieldsRec:      count0, count1:   1   2
(PID.TID 0000.0001) 
(PID.TID 0000.0001)  MDSREADFIELD: opening global file: fsh.labsea1979
(PID.TID 0000.0001)  MDSREADFIELD: opening global file: fsh.labsea1979
(PID.TID 0000.0001) 
(PID.TID 0000.0001)  exf_GetFFieldsRec: first, changed, fac:   T   F   0.50000000E+00
(PID.TID 0000.0001)  exf_GetFFieldsRec:      count0, count1:   1   2
(PID.TID 0000.0001) 
(PID.TID 0000.0001)  MDSREADFIELD: opening global file: flo.labsea1979
(PID.TID 0000.0001)  MDSREADFIELD: opening global file: flo.labsea1979
 cg2d: Sum(rhs),rhsMax =   1.95590071916385E-16  1.00807802167630E+00
(PID.TID 0000.0001)                    cg2d_init_res =    1.61521300655486E+00
(PID.TID 0000.0001)                       cg2d_iters =    47
(PID.TID 0000.0001)                         cg2d_res =    5.70138941994743E-14
(PID.TID 0000.0001) 
(PID.TID 0000.0001)  exf_GetFFieldsRec: first, changed, fac:   F   F   0.49863388E+00
(PID.TID 0000.0001)  exf_GetFFieldsRec:      count0, count1:   1   2
(PID.TID 0000.0001) 
(PID.TID 0000.0001) 
(PID.TID 0000.0001)  exf_GetFFieldsRec: first, changed, fac:   F   F   0.49863388E+00
(PID.TID 0000.0001)  exf_GetFFieldsRec:      count0, count1:   1   2
(PID.TID 0000.0001) 
(PID.TID 0000.0001)  MDSREADFIELD: opening file: xx_uwind.0000000000.001.001.data
(PID.TID 0000.0001)  MDSREADFIELD: opening file: xx_uwind.0000000000.001.001.data
(PID.TID 0000.0001)  MDSREADFIELD: opening file: xx_vwind.0000000000.001.001.data
(PID.TID 0000.0001)  MDSREADFIELD: opening file: xx_vwind.0000000000.001.001.data
(PID.TID 0000.0001) 
(PID.TID 0000.0001)  exf_GetFFieldsRec: first, changed, fac:   F   F   0.49863388E+00
(PID.TID 0000.0001)  exf_GetFFieldsRec:      count0, count1:   1   2
(PID.TID 0000.0001) 
(PID.TID 0000.0001) 
(PID.TID 0000.0001)  exf_GetFFieldsRec: first, changed, fac:   F   F   0.49863388E+00
(PID.TID 0000.0001)  exf_GetFFieldsRec:      count0, count1:   1   2
(PID.TID 0000.0001) 
(PID.TID 0000.0001) 
(PID.TID 0000.0001)  exf_GetFFieldsRec: first, changed, fac:   F   F   0.49863388E+00
(PID.TID 0000.0001)  exf_GetFFieldsRec:      count0, count1:   1   2
(PID.TID 0000.0001) 
(PID.TID 0000.0001)  MDSREADFIELD: opening file: xx_atemp.0000000000.001.001.data
(PID.TID 0000.0001)  MDSREADFIELD: opening file: xx_atemp.0000000000.001.001.data
(PID.TID 0000.0001)  MDSREADFIELD: opening file: xx_aqh.0000000000.001.001.data
(PID.TID 0000.0001)  MDSREADFIELD: opening file: xx_aqh.0000000000.001.001.data
(PID.TID 0000.0001) 
(PID.TID 0000.0001)  exf_GetFFieldsRec: first, changed, fac:   F   F   0.49863388E+00
(PID.TID 0000.0001)  exf_GetFFieldsRec:      count0, count1:   1   2
(PID.TID 0000.0001) 
(PID.TID 0000.0001) 
(PID.TID 0000.0001)  exf_GetFFieldsRec: first, changed, fac:   F   F   0.49863388E+00
(PID.TID 0000.0001)  exf_GetFFieldsRec:      count0, count1:   1   2
(PID.TID 0000.0001) 
 cg2d: Sum(rhs),rhsMax =   7.37474317724640E-16  1.23585471329616E+00
(PID.TID 0000.0001)                    cg2d_init_res =    3.48544561450945E-01
(PID.TID 0000.0001)                       cg2d_iters =    45
(PID.TID 0000.0001)                         cg2d_res =    6.49477568692734E-14
(PID.TID 0000.0001) 
(PID.TID 0000.0001)  exf_GetFFieldsRec: first, changed, fac:   F   F   0.49726776E+00
(PID.TID 0000.0001)  exf_GetFFieldsRec:      count0, count1:   1   2
(PID.TID 0000.0001) 
(PID.TID 0000.0001) 
(PID.TID 0000.0001)  exf_GetFFieldsRec: first, changed, fac:   F   F   0.49726776E+00
(PID.TID 0000.0001)  exf_GetFFieldsRec:      count0, count1:   1   2
(PID.TID 0000.0001) 
(PID.TID 0000.0001)  MDSREADFIELD: opening file: xx_uwind.0000000000.001.001.data
(PID.TID 0000.0001)  MDSREADFIELD: opening file: xx_uwind.0000000000.001.001.data
(PID.TID 0000.0001)  MDSREADFIELD: opening file: xx_vwind.0000000000.001.001.data
(PID.TID 0000.0001)  MDSREADFIELD: opening file: xx_vwind.0000000000.001.001.data
(PID.TID 0000.0001) 
(PID.TID 0000.0001)  exf_GetFFieldsRec: first, changed, fac:   F   F   0.49726776E+00
(PID.TID 0000.0001)  exf_GetFFieldsRec:      count0, count1:   1   2
(PID.TID 0000.0001) 
(PID.TID 0000.0001) 
(PID.TID 0000.0001)  exf_GetFFieldsRec: first, changed, fac:   F   F   0.49726776E+00
(PID.TID 0000.0001)  exf_GetFFieldsRec:      count0, count1:   1   2
(PID.TID 0000.0001) 
(PID.TID 0000.0001) 
(PID.TID 0000.0001)  exf_GetFFieldsRec: first, changed, fac:   F   F   0.49726776E+00
(PID.TID 0000.0001)  exf_GetFFieldsRec:      count0, count1:   1   2
(PID.TID 0000.0001) 
(PID.TID 0000.0001)  MDSREADFIELD: opening file: xx_atemp.0000000000.001.001.data
(PID.TID 0000.0001)  MDSREADFIELD: opening file: xx_atemp.0000000000.001.001.data
(PID.TID 0000.0001)  MDSREADFIELD: opening file: xx_aqh.0000000000.001.001.data
(PID.TID 0000.0001)  MDSREADFIELD: opening file: xx_aqh.0000000000.001.001.data
(PID.TID 0000.0001) 
(PID.TID 0000.0001)  exf_GetFFieldsRec: first, changed, fac:   F   F   0.49726776E+00
(PID.TID 0000.0001)  exf_GetFFieldsRec:      count0, count1:   1   2
(PID.TID 0000.0001) 
(PID.TID 0000.0001) 
(PID.TID 0000.0001)  exf_GetFFieldsRec: first, changed, fac:   F   F   0.49726776E+00
(PID.TID 0000.0001)  exf_GetFFieldsRec:      count0, count1:   1   2
(PID.TID 0000.0001) 
 cg2d: Sum(rhs),rhsMax =   6.20553955443803E-15  1.25438452343302E+00
(PID.TID 0000.0001)                    cg2d_init_res =    2.36078257971889E-01
(PID.TID 0000.0001)                       cg2d_iters =    45
(PID.TID 0000.0001)                         cg2d_res =    6.62546240702124E-14
(PID.TID 0000.0001) 
(PID.TID 0000.0001)  exf_GetFFieldsRec: first, changed, fac:   F   F   0.49590164E+00
(PID.TID 0000.0001)  exf_GetFFieldsRec:      count0, count1:   1   2
(PID.TID 0000.0001) 
(PID.TID 0000.0001) 
(PID.TID 0000.0001)  exf_GetFFieldsRec: first, changed, fac:   F   F   0.49590164E+00
(PID.TID 0000.0001)  exf_GetFFieldsRec:      count0, count1:   1   2
(PID.TID 0000.0001) 
(PID.TID 0000.0001)  MDSREADFIELD: opening file: xx_uwind.0000000000.001.001.data
(PID.TID 0000.0001)  MDSREADFIELD: opening file: xx_uwind.0000000000.001.001.data
(PID.TID 0000.0001)  MDSREADFIELD: opening file: xx_vwind.0000000000.001.001.data
(PID.TID 0000.0001)  MDSREADFIELD: opening file: xx_vwind.0000000000.001.001.data
(PID.TID 0000.0001) 
(PID.TID 0000.0001)  exf_GetFFieldsRec: first, changed, fac:   F   F   0.49590164E+00
(PID.TID 0000.0001)  exf_GetFFieldsRec:      count0, count1:   1   2
(PID.TID 0000.0001) 
(PID.TID 0000.0001) 
(PID.TID 0000.0001)  exf_GetFFieldsRec: first, changed, fac:   F   F   0.49590164E+00
(PID.TID 0000.0001)  exf_GetFFieldsRec:      count0, count1:   1   2
(PID.TID 0000.0001) 
(PID.TID 0000.0001) 
(PID.TID 0000.0001)  exf_GetFFieldsRec: first, changed, fac:   F   F   0.49590164E+00
(PID.TID 0000.0001)  exf_GetFFieldsRec:      count0, count1:   1   2
(PID.TID 0000.0001) 
(PID.TID 0000.0001)  MDSREADFIELD: opening file: xx_atemp.0000000000.001.001.data
(PID.TID 0000.0001)  MDSREADFIELD: opening file: xx_atemp.0000000000.001.001.data
(PID.TID 0000.0001)  MDSREADFIELD: opening file: xx_aqh.0000000000.001.001.data
(PID.TID 0000.0001)  MDSREADFIELD: opening file: xx_aqh.0000000000.001.001.data
(PID.TID 0000.0001) 
(PID.TID 0000.0001)  exf_GetFFieldsRec: first, changed, fac:   F   F   0.49590164E+00
(PID.TID 0000.0001)  exf_GetFFieldsRec:      count0, count1:   1   2
(PID.TID 0000.0001) 
(PID.TID 0000.0001) 
(PID.TID 0000.0001)  exf_GetFFieldsRec: first, changed, fac:   F   F   0.49590164E+00
(PID.TID 0000.0001)  exf_GetFFieldsRec:      count0, count1:   1   2
(PID.TID 0000.0001) 
 cg2d: Sum(rhs),rhsMax =   3.20620266447413E-15  1.25494322187447E+00
(PID.TID 0000.0001)                    cg2d_init_res =    1.82553144014713E-01
(PID.TID 0000.0001)                       cg2d_iters =    45
(PID.TID 0000.0001)                         cg2d_res =    5.12415163303431E-14
(PID.TID 0000.0001) 
(PID.TID 0000.0001)  exf_GetFFieldsRec: first, changed, fac:   F   F   0.49863388E+00
(PID.TID 0000.0001)  exf_GetFFieldsRec:      count0, count1:   1   2
(PID.TID 0000.0001) 
(PID.TID 0000.0001) 
(PID.TID 0000.0001)  exf_GetFFieldsRec: first, changed, fac:   F   F   0.49863388E+00
(PID.TID 0000.0001)  exf_GetFFieldsRec:      count0, count1:   1   2
(PID.TID 0000.0001) 
(PID.TID 0000.0001)  MDSREADFIELD: opening file: xx_uwind.0000000000.001.001.data
(PID.TID 0000.0001)  MDSREADFIELD: opening file: xx_uwind.0000000000.001.001.data
(PID.TID 0000.0001)  MDSREADFIELD: opening file: xx_vwind.0000000000.001.001.data
(PID.TID 0000.0001)  MDSREADFIELD: opening file: xx_vwind.0000000000.001.001.data
(PID.TID 0000.0001) 
(PID.TID 0000.0001)  exf_GetFFieldsRec: first, changed, fac:   F   F   0.49863388E+00
(PID.TID 0000.0001)  exf_GetFFieldsRec:      count0, count1:   1   2
(PID.TID 0000.0001) 
(PID.TID 0000.0001) 
(PID.TID 0000.0001)  exf_GetFFieldsRec: first, changed, fac:   F   F   0.49863388E+00
(PID.TID 0000.0001)  exf_GetFFieldsRec:      count0, count1:   1   2
(PID.TID 0000.0001) 
(PID.TID 0000.0001) 
(PID.TID 0000.0001)  exf_GetFFieldsRec: first, changed, fac:   F   F   0.49863388E+00
(PID.TID 0000.0001)  exf_GetFFieldsRec:      count0, count1:   1   2
(PID.TID 0000.0001) 
(PID.TID 0000.0001)  MDSREADFIELD: opening file: xx_atemp.0000000000.001.001.data
(PID.TID 0000.0001)  MDSREADFIELD: opening file: xx_atemp.0000000000.001.001.data
(PID.TID 0000.0001)  MDSREADFIELD: opening file: xx_aqh.0000000000.001.001.data
(PID.TID 0000.0001)  MDSREADFIELD: opening file: xx_aqh.0000000000.001.001.data
(PID.TID 0000.0001) 
(PID.TID 0000.0001)  exf_GetFFieldsRec: first, changed, fac:   F   F   0.49863388E+00
(PID.TID 0000.0001)  exf_GetFFieldsRec:      count0, count1:   1   2
(PID.TID 0000.0001) 
(PID.TID 0000.0001) 
(PID.TID 0000.0001)  exf_GetFFieldsRec: first, changed, fac:   F   F   0.49863388E+00
(PID.TID 0000.0001)  exf_GetFFieldsRec:      count0, count1:   1   2
(PID.TID 0000.0001) 
 cg2d: Sum(rhs),rhsMax =   2.18195687212708E-16  5.87585525624369E-03
(PID.TID 0000.0001) 
(PID.TID 0000.0001)  exf_GetFFieldsRec: first, changed, fac:   F   F   0.49863388E+00
(PID.TID 0000.0001)  exf_GetFFieldsRec:      count0, count1:   1   2
(PID.TID 0000.0001) 
(PID.TID 0000.0001) 
(PID.TID 0000.0001)  exf_GetFFieldsRec: first, changed, fac:   F   F   0.49863388E+00
(PID.TID 0000.0001)  exf_GetFFieldsRec:      count0, count1:   1   2
(PID.TID 0000.0001) 
(PID.TID 0000.0001)  MDSREADFIELD: opening file: xx_uwind.0000000000.001.001.data
(PID.TID 0000.0001)  MDSREADFIELD: opening file: xx_uwind.0000000000.001.001.data
(PID.TID 0000.0001)  MDSREADFIELD: opening file: xx_vwind.0000000000.001.001.data
(PID.TID 0000.0001)  MDSREADFIELD: opening file: xx_vwind.0000000000.001.001.data
(PID.TID 0000.0001) 
(PID.TID 0000.0001)  exf_GetFFieldsRec: first, changed, fac:   F   F   0.49863388E+00
(PID.TID 0000.0001)  exf_GetFFieldsRec:      count0, count1:   1   2
(PID.TID 0000.0001) 
(PID.TID 0000.0001) 
(PID.TID 0000.0001)  exf_GetFFieldsRec: first, changed, fac:   F   F   0.49863388E+00
(PID.TID 0000.0001)  exf_GetFFieldsRec:      count0, count1:   1   2
(PID.TID 0000.0001) 
(PID.TID 0000.0001) 
(PID.TID 0000.0001)  exf_GetFFieldsRec: first, changed, fac:   F   F   0.49863388E+00
(PID.TID 0000.0001)  exf_GetFFieldsRec:      count0, count1:   1   2
(PID.TID 0000.0001) 
(PID.TID 0000.0001)  MDSREADFIELD: opening file: xx_atemp.0000000000.001.001.data
(PID.TID 0000.0001)  MDSREADFIELD: opening file: xx_atemp.0000000000.001.001.data
(PID.TID 0000.0001)  MDSREADFIELD: opening file: xx_aqh.0000000000.001.001.data
(PID.TID 0000.0001)  MDSREADFIELD: opening file: xx_aqh.0000000000.001.001.data
(PID.TID 0000.0001) 
(PID.TID 0000.0001)  exf_GetFFieldsRec: first, changed, fac:   F   F   0.49863388E+00
(PID.TID 0000.0001)  exf_GetFFieldsRec:      count0, count1:   1   2
(PID.TID 0000.0001) 
(PID.TID 0000.0001) 
(PID.TID 0000.0001)  exf_GetFFieldsRec: first, changed, fac:   F   F   0.49863388E+00
(PID.TID 0000.0001)  exf_GetFFieldsRec:      count0, count1:   1   2
(PID.TID 0000.0001) 
(PID.TID 0000.0001) 
(PID.TID 0000.0001)  exf_GetFFieldsRec: first, changed, fac:   F   F   0.49863388E+00
(PID.TID 0000.0001)  exf_GetFFieldsRec:      count0, count1:   1   2
(PID.TID 0000.0001) 
(PID.TID 0000.0001) 
(PID.TID 0000.0001)  exf_GetFFieldsRec: first, changed, fac:   F   F   0.49863388E+00
(PID.TID 0000.0001)  exf_GetFFieldsRec:      count0, count1:   1   2
(PID.TID 0000.0001) 
(PID.TID 0000.0001)  MDSREADFIELD: opening file: xx_uwind.0000000000.001.001.data
(PID.TID 0000.0001)  MDSREADFIELD: opening file: xx_uwind.0000000000.001.001.data
(PID.TID 0000.0001)  MDSREADFIELD: opening file: xx_vwind.0000000000.001.001.data
(PID.TID 0000.0001)  MDSREADFIELD: opening file: xx_vwind.0000000000.001.001.data
(PID.TID 0000.0001) 
(PID.TID 0000.0001)  exf_GetFFieldsRec: first, changed, fac:   F   F   0.49863388E+00
(PID.TID 0000.0001)  exf_GetFFieldsRec:      count0, count1:   1   2
(PID.TID 0000.0001) 
(PID.TID 0000.0001) 
(PID.TID 0000.0001)  exf_GetFFieldsRec: first, changed, fac:   F   F   0.49863388E+00
(PID.TID 0000.0001)  exf_GetFFieldsRec:      count0, count1:   1   2
(PID.TID 0000.0001) 
(PID.TID 0000.0001)  MDSREADFIELD: opening file: xx_atemp.0000000000.001.001.data
(PID.TID 0000.0001)  MDSREADFIELD: opening file: xx_atemp.0000000000.001.001.data
(PID.TID 0000.0001)  MDSREADFIELD: opening file: xx_aqh.0000000000.001.001.data
(PID.TID 0000.0001)  MDSREADFIELD: opening file: xx_aqh.0000000000.001.001.data
(PID.TID 0000.0001)  MDSREADFIELD: opening file: adxx_aqh.0000000000.001.001.data
(PID.TID 0000.0001)  MDSREADFIELD: opening file: adxx_aqh.0000000000.001.001.data
(PID.TID 0000.0001)  MDSREADFIELD: opening file: adxx_atemp.0000000000.001.001.data
(PID.TID 0000.0001)  MDSREADFIELD: opening file: adxx_atemp.0000000000.001.001.data
(PID.TID 0000.0001)  MDSREADFIELD: opening file: adxx_vwind.0000000000.001.001.data
(PID.TID 0000.0001)  MDSREADFIELD: opening file: adxx_vwind.0000000000.001.001.data
(PID.TID 0000.0001)  MDSREADFIELD: opening file: adxx_uwind.0000000000.001.001.data
(PID.TID 0000.0001)  MDSREADFIELD: opening file: adxx_uwind.0000000000.001.001.data
(PID.TID 0000.0001)  MDSREADVECTOR: opening file: tapelev2_1_the_main_loop_gsnm1.it0000.001.001.data
(PID.TID 0000.0001)  MDS_READ_RL_VEC: irec =  00000001   00015456
(PID.TID 0000.0001)  MDSREADVECTOR: opening file: tapelev2_2_the_main_loop_gtnm1.it0000.001.001.data
(PID.TID 0000.0001)  MDS_READ_RL_VEC: irec =  00000001   00015456
(PID.TID 0000.0001)  MDSREADVECTOR: opening file: tapelev2_3_the_main_loop_gunm1.it0000.001.001.data
(PID.TID 0000.0001)  MDS_READ_RL_VEC: irec =  00000001   00015456
(PID.TID 0000.0001)  MDSREADVECTOR: opening file: tapelev2_4_the_main_loop_gvnm1.it0000.001.001.data
(PID.TID 0000.0001)  MDS_READ_RL_VEC: irec =  00000001   00015456
(PID.TID 0000.0001)  MDSREADVECTOR: opening file: tapelev2_5_the_main_loop_theta.it0000.001.001.data
(PID.TID 0000.0001)  MDS_READ_RL_VEC: irec =  00000001   00015456
(PID.TID 0000.0001)  MDSREADVECTOR: opening file: tapelev2_6_the_main_loop_salt.it0000.001.001.data
(PID.TID 0000.0001)  MDS_READ_RL_VEC: irec =  00000001   00015456
(PID.TID 0000.0001)  MDSREADVECTOR: opening file: tapelev2_7_the_main_loop_uvel.it0000.001.001.data
(PID.TID 0000.0001)  MDS_READ_RL_VEC: irec =  00000001   00015456
(PID.TID 0000.0001)  MDSREADVECTOR: opening file: tapelev2_8_the_main_loop_vvel.it0000.001.001.data
(PID.TID 0000.0001)  MDS_READ_RL_VEC: irec =  00000001   00015456
(PID.TID 0000.0001)  MDSREADVECTOR: opening file: tapelev2_9_the_main_loop_wvel.it0000.001.001.data
(PID.TID 0000.0001)  MDS_READ_RL_VEC: irec =  00000001   00015456
(PID.TID 0000.0001)  MDSREADVECTOR: opening file: tapelev2_10_the_main_loop_etan.it0000.001.001.data
(PID.TID 0000.0001)  MDS_READ_RL_VEC: irec =  00000001   00000672
(PID.TID 0000.0001)  MDSREADVECTOR: opening file: tapelev2_11_the_main_loop_gu.it0000.001.001.data
(PID.TID 0000.0001)  MDS_READ_RL_VEC: irec =  00000001   00015456
(PID.TID 0000.0001)  MDSREADVECTOR: opening file: tapelev2_12_the_main_loop_gv.it0000.001.001.data
(PID.TID 0000.0001)  MDS_READ_RL_VEC: irec =  00000001   00015456
(PID.TID 0000.0001)  MDSREADVECTOR: opening file: tapelev2_13_the_main_loop_uveld.it0000.001.001.data
(PID.TID 0000.0001)  MDS_READ_RL_VEC: irec =  00000001   00015456
(PID.TID 0000.0001)  MDSREADVECTOR: opening file: tapelev2_14_the_main_loop_vveld.it0000.001.001.data
(PID.TID 0000.0001)  MDS_READ_RL_VEC: irec =  00000001   00015456
(PID.TID 0000.0001)  MDSREADVECTOR: opening file: tapelev2_15_the_main_loop_etanm1.it0000.001.001.data
(PID.TID 0000.0001)  MDS_READ_RL_VEC: irec =  00000001   00000672
(PID.TID 0000.0001)  MDSREADVECTOR: opening file: tapelev2_16_the_main_loop_unm1.it0000.001.001.data
(PID.TID 0000.0001)  MDS_READ_RL_VEC: irec =  00000001   00015456
(PID.TID 0000.0001)  MDSREADVECTOR: opening file: tapelev2_17_the_main_loop_vnm1.it0000.001.001.data
(PID.TID 0000.0001)  MDS_READ_RL_VEC: irec =  00000001   00015456
(PID.TID 0000.0001)  MDSREADVECTOR: opening file: tapelev2_18_the_main_loop_gucd.it0000.001.001.data
(PID.TID 0000.0001)  MDS_READ_RL_VEC: irec =  00000001   00015456
(PID.TID 0000.0001)  MDSREADVECTOR: opening file: tapelev2_19_the_main_loop_gvcd.it0000.001.001.data
(PID.TID 0000.0001)  MDS_READ_RL_VEC: irec =  00000001   00015456
(PID.TID 0000.0001)  MDSREADVECTOR: opening file: tapelev2_20_the_main_loop_etah.it0000.001.001.data
(PID.TID 0000.0001)  MDS_READ_RL_VEC: irec =  00000001   00000672
(PID.TID 0000.0001)  MDSREADVECTOR: opening file: tapelev2_21_the_main_loop_hdivflow.it0000.001.001.data
(PID.TID 0000.0001)  MDS_READ_RL_VEC: irec =  00000001   00000672
(PID.TID 0000.0001)  MDSREADVECTOR: opening file: tapelev2_22_the_main_loop_aqh0.it0000.001.001.data
(PID.TID 0000.0001)  MDS_READ_RL_VEC: irec =  00000001   00000672
(PID.TID 0000.0001)  MDSREADVECTOR: opening file: tapelev2_23_the_main_loop_aqh1.it0000.001.001.data
(PID.TID 0000.0001)  MDS_READ_RL_VEC: irec =  00000001   00000672
(PID.TID 0000.0001)  MDSREADVECTOR: opening file: tapelev2_24_the_main_loop_atemp0.it0000.001.001.data
(PID.TID 0000.0001)  MDS_READ_RL_VEC: irec =  00000001   00000672
(PID.TID 0000.0001)  MDSREADVECTOR: opening file: tapelev2_25_the_main_loop_atemp1.it0000.001.001.data
(PID.TID 0000.0001)  MDS_READ_RL_VEC: irec =  00000001   00000672
(PID.TID 0000.0001)  MDSREADVECTOR: opening file: tapelev2_26_the_main_loop_precip0.it0000.001.001.data
(PID.TID 0000.0001)  MDS_READ_RL_VEC: irec =  00000001   00000672
(PID.TID 0000.0001)  MDSREADVECTOR: opening file: tapelev2_27_the_main_loop_precip1.it0000.001.001.data
(PID.TID 0000.0001)  MDS_READ_RL_VEC: irec =  00000001   00000672
(PID.TID 0000.0001)  MDSREADVECTOR: opening file: tapelev2_28_the_main_loop_lwflux0.it0000.001.001.data
(PID.TID 0000.0001)  MDS_READ_RL_VEC: irec =  00000001   00000672
(PID.TID 0000.0001)  MDSREADVECTOR: opening file: tapelev2_29_the_main_loop_lwflux1.it0000.001.001.data
(PID.TID 0000.0001)  MDS_READ_RL_VEC: irec =  00000001   00000672
(PID.TID 0000.0001)  MDSREADVECTOR: opening file: tapelev2_30_the_main_loop_swflux0.it0000.001.001.data
(PID.TID 0000.0001)  MDS_READ_RL_VEC: irec =  00000001   00000672
(PID.TID 0000.0001)  MDSREADVECTOR: opening file: tapelev2_31_the_main_loop_swflux1.it0000.001.001.data
(PID.TID 0000.0001)  MDS_READ_RL_VEC: irec =  00000001   00000672
(PID.TID 0000.0001)  MDSREADVECTOR: opening file: tapelev2_32_the_main_loop_evap.it0000.001.001.data
(PID.TID 0000.0001)  MDS_READ_RL_VEC: irec =  00000001   00000672
(PID.TID 0000.0001)  MDSREADVECTOR: opening file: tapelev2_33_the_main_loop_uwind0.it0000.001.001.data
(PID.TID 0000.0001)  MDS_READ_RL_VEC: irec =  00000001   00000672
(PID.TID 0000.0001)  MDSREADVECTOR: opening file: tapelev2_34_the_main_loop_uwind1.it0000.001.001.data
(PID.TID 0000.0001)  MDS_READ_RL_VEC: irec =  00000001   00000672
(PID.TID 0000.0001)  MDSREADVECTOR: opening file: tapelev2_35_the_main_loop_vwind0.it0000.001.001.data
(PID.TID 0000.0001)  MDS_READ_RL_VEC: irec =  00000001   00000672
(PID.TID 0000.0001)  MDSREADVECTOR: opening file: tapelev2_36_the_main_loop_vwind1.it0000.001.001.data
(PID.TID 0000.0001)  MDS_READ_RL_VEC: irec =  00000001   00000672
(PID.TID 0000.0001) 
(PID.TID 0000.0001)  exf_GetFFieldsRec: first, changed, fac:   T   F   0.50000000E+00
(PID.TID 0000.0001)  exf_GetFFieldsRec:      count0, count1:   1   2
(PID.TID 0000.0001) 
(PID.TID 0000.0001)  MDSREADFIELD: opening global file: u10m.labsea79
(PID.TID 0000.0001)  MDSREADFIELD: opening global file: u10m.labsea79
(PID.TID 0000.0001) 
(PID.TID 0000.0001)  exf_GetFFieldsRec: first, changed, fac:   T   F   0.50000000E+00
(PID.TID 0000.0001)  exf_GetFFieldsRec:      count0, count1:   1   2
(PID.TID 0000.0001) 
(PID.TID 0000.0001)  MDSREADFIELD: opening global file: v10m.labsea79
(PID.TID 0000.0001)  MDSREADFIELD: opening global file: v10m.labsea79
(PID.TID 0000.0001)  MDSREADFIELD: opening file: xx_uwind.0000000000.001.001.data
(PID.TID 0000.0001)  MDSREADFIELD: opening file: xx_uwind.0000000000.001.001.data
(PID.TID 0000.0001)  MDSREADFIELD: opening file: xx_vwind.0000000000.001.001.data
(PID.TID 0000.0001)  MDSREADFIELD: opening file: xx_vwind.0000000000.001.001.data
(PID.TID 0000.0001) 
(PID.TID 0000.0001)  exf_GetFFieldsRec: first, changed, fac:   T   F   0.50000000E+00
(PID.TID 0000.0001)  exf_GetFFieldsRec:      count0, count1:   1   2
(PID.TID 0000.0001) 
(PID.TID 0000.0001)  MDSREADFIELD: opening global file: tair.labsea1979
(PID.TID 0000.0001)  MDSREADFIELD: opening global file: tair.labsea1979
(PID.TID 0000.0001) 
(PID.TID 0000.0001)  exf_GetFFieldsRec: first, changed, fac:   T   F   0.50000000E+00
(PID.TID 0000.0001)  exf_GetFFieldsRec:      count0, count1:   1   2
(PID.TID 0000.0001) 
(PID.TID 0000.0001)  MDSREADFIELD: opening global file: qa.labsea1979
(PID.TID 0000.0001)  MDSREADFIELD: opening global file: qa.labsea1979
(PID.TID 0000.0001) 
(PID.TID 0000.0001)  exf_GetFFieldsRec: first, changed, fac:   T   F   0.50000000E+00
(PID.TID 0000.0001)  exf_GetFFieldsRec:      count0, count1:   1   2
(PID.TID 0000.0001) 
(PID.TID 0000.0001)  MDSREADFIELD: opening global file: prate.labsea1979
(PID.TID 0000.0001)  MDSREADFIELD: opening global file: prate.labsea1979
(PID.TID 0000.0001)  MDSREADFIELD: opening file: xx_atemp.0000000000.001.001.data
(PID.TID 0000.0001)  MDSREADFIELD: opening file: xx_atemp.0000000000.001.001.data
(PID.TID 0000.0001)  MDSREADFIELD: opening file: xx_aqh.0000000000.001.001.data
(PID.TID 0000.0001)  MDSREADFIELD: opening file: xx_aqh.0000000000.001.001.data
(PID.TID 0000.0001) 
(PID.TID 0000.0001)  exf_GetFFieldsRec: first, changed, fac:   T   F   0.50000000E+00
(PID.TID 0000.0001)  exf_GetFFieldsRec:      count0, count1:   1   2
(PID.TID 0000.0001) 
(PID.TID 0000.0001)  MDSREADFIELD: opening global file: fsh.labsea1979
(PID.TID 0000.0001)  MDSREADFIELD: opening global file: fsh.labsea1979
(PID.TID 0000.0001) 
(PID.TID 0000.0001)  exf_GetFFieldsRec: first, changed, fac:   T   F   0.50000000E+00
(PID.TID 0000.0001)  exf_GetFFieldsRec:      count0, count1:   1   2
(PID.TID 0000.0001) 
(PID.TID 0000.0001)  MDSREADFIELD: opening global file: flo.labsea1979
(PID.TID 0000.0001)  MDSREADFIELD: opening global file: flo.labsea1979
 cg2d: Sum(rhs),rhsMax =   1.95590071916385E-16  1.00807802167630E+00
(PID.TID 0000.0001)                    cg2d_init_res =    1.61521300655486E+00
(PID.TID 0000.0001)                       cg2d_iters =    47
(PID.TID 0000.0001)                         cg2d_res =    5.70138941994743E-14
(PID.TID 0000.0001) 
(PID.TID 0000.0001)  exf_GetFFieldsRec: first, changed, fac:   F   F   0.49863388E+00
(PID.TID 0000.0001)  exf_GetFFieldsRec:      count0, count1:   1   2
(PID.TID 0000.0001) 
(PID.TID 0000.0001) 
(PID.TID 0000.0001)  exf_GetFFieldsRec: first, changed, fac:   F   F   0.49863388E+00
(PID.TID 0000.0001)  exf_GetFFieldsRec:      count0, count1:   1   2
(PID.TID 0000.0001) 
(PID.TID 0000.0001)  MDSREADFIELD: opening file: xx_uwind.0000000000.001.001.data
(PID.TID 0000.0001)  MDSREADFIELD: opening file: xx_uwind.0000000000.001.001.data
(PID.TID 0000.0001)  MDSREADFIELD: opening file: xx_vwind.0000000000.001.001.data
(PID.TID 0000.0001)  MDSREADFIELD: opening file: xx_vwind.0000000000.001.001.data
(PID.TID 0000.0001) 
(PID.TID 0000.0001)  exf_GetFFieldsRec: first, changed, fac:   F   F   0.49863388E+00
(PID.TID 0000.0001)  exf_GetFFieldsRec:      count0, count1:   1   2
(PID.TID 0000.0001) 
(PID.TID 0000.0001) 
(PID.TID 0000.0001)  exf_GetFFieldsRec: first, changed, fac:   F   F   0.49863388E+00
(PID.TID 0000.0001)  exf_GetFFieldsRec:      count0, count1:   1   2
(PID.TID 0000.0001) 
(PID.TID 0000.0001) 
(PID.TID 0000.0001)  exf_GetFFieldsRec: first, changed, fac:   F   F   0.49863388E+00
(PID.TID 0000.0001)  exf_GetFFieldsRec:      count0, count1:   1   2
(PID.TID 0000.0001) 
(PID.TID 0000.0001)  MDSREADFIELD: opening file: xx_atemp.0000000000.001.001.data
(PID.TID 0000.0001)  MDSREADFIELD: opening file: xx_atemp.0000000000.001.001.data
(PID.TID 0000.0001)  MDSREADFIELD: opening file: xx_aqh.0000000000.001.001.data
(PID.TID 0000.0001)  MDSREADFIELD: opening file: xx_aqh.0000000000.001.001.data
(PID.TID 0000.0001) 
(PID.TID 0000.0001)  exf_GetFFieldsRec: first, changed, fac:   F   F   0.49863388E+00
(PID.TID 0000.0001)  exf_GetFFieldsRec:      count0, count1:   1   2
(PID.TID 0000.0001) 
(PID.TID 0000.0001) 
(PID.TID 0000.0001)  exf_GetFFieldsRec: first, changed, fac:   F   F   0.49863388E+00
(PID.TID 0000.0001)  exf_GetFFieldsRec:      count0, count1:   1   2
(PID.TID 0000.0001) 
 cg2d: Sum(rhs),rhsMax =   7.37474317724640E-16  1.23585471329616E+00
(PID.TID 0000.0001)                    cg2d_init_res =    3.48544561450945E-01
(PID.TID 0000.0001)                       cg2d_iters =    45
(PID.TID 0000.0001)                         cg2d_res =    6.49477568692734E-14
(PID.TID 0000.0001) 
(PID.TID 0000.0001)  exf_GetFFieldsRec: first, changed, fac:   F   F   0.49726776E+00
(PID.TID 0000.0001)  exf_GetFFieldsRec:      count0, count1:   1   2
(PID.TID 0000.0001) 
(PID.TID 0000.0001) 
(PID.TID 0000.0001)  exf_GetFFieldsRec: first, changed, fac:   F   F   0.49726776E+00
(PID.TID 0000.0001)  exf_GetFFieldsRec:      count0, count1:   1   2
(PID.TID 0000.0001) 
(PID.TID 0000.0001)  MDSREADFIELD: opening file: xx_uwind.0000000000.001.001.data
(PID.TID 0000.0001)  MDSREADFIELD: opening file: xx_uwind.0000000000.001.001.data
(PID.TID 0000.0001)  MDSREADFIELD: opening file: xx_vwind.0000000000.001.001.data
(PID.TID 0000.0001)  MDSREADFIELD: opening file: xx_vwind.0000000000.001.001.data
(PID.TID 0000.0001) 
(PID.TID 0000.0001)  exf_GetFFieldsRec: first, changed, fac:   F   F   0.49726776E+00
(PID.TID 0000.0001)  exf_GetFFieldsRec:      count0, count1:   1   2
(PID.TID 0000.0001) 
(PID.TID 0000.0001) 
(PID.TID 0000.0001)  exf_GetFFieldsRec: first, changed, fac:   F   F   0.49726776E+00
(PID.TID 0000.0001)  exf_GetFFieldsRec:      count0, count1:   1   2
(PID.TID 0000.0001) 
(PID.TID 0000.0001) 
(PID.TID 0000.0001)  exf_GetFFieldsRec: first, changed, fac:   F   F   0.49726776E+00
(PID.TID 0000.0001)  exf_GetFFieldsRec:      count0, count1:   1   2
(PID.TID 0000.0001) 
(PID.TID 0000.0001)  MDSREADFIELD: opening file: xx_atemp.0000000000.001.001.data
(PID.TID 0000.0001)  MDSREADFIELD: opening file: xx_atemp.0000000000.001.001.data
(PID.TID 0000.0001)  MDSREADFIELD: opening file: xx_aqh.0000000000.001.001.data
(PID.TID 0000.0001)  MDSREADFIELD: opening file: xx_aqh.0000000000.001.001.data
(PID.TID 0000.0001) 
(PID.TID 0000.0001)  exf_GetFFieldsRec: first, changed, fac:   F   F   0.49726776E+00
(PID.TID 0000.0001)  exf_GetFFieldsRec:      count0, count1:   1   2
(PID.TID 0000.0001) 
(PID.TID 0000.0001) 
(PID.TID 0000.0001)  exf_GetFFieldsRec: first, changed, fac:   F   F   0.49726776E+00
(PID.TID 0000.0001)  exf_GetFFieldsRec:      count0, count1:   1   2
(PID.TID 0000.0001) 
 cg2d: Sum(rhs),rhsMax =   6.20553955443803E-15  1.25438452343302E+00
(PID.TID 0000.0001)                    cg2d_init_res =    2.36078257971889E-01
(PID.TID 0000.0001)                       cg2d_iters =    45
(PID.TID 0000.0001)                         cg2d_res =    6.62546240702124E-14
(PID.TID 0000.0001) 
(PID.TID 0000.0001)  exf_GetFFieldsRec: first, changed, fac:   F   F   0.49590164E+00
(PID.TID 0000.0001)  exf_GetFFieldsRec:      count0, count1:   1   2
(PID.TID 0000.0001) 
(PID.TID 0000.0001) 
(PID.TID 0000.0001)  exf_GetFFieldsRec: first, changed, fac:   F   F   0.49590164E+00
(PID.TID 0000.0001)  exf_GetFFieldsRec:      count0, count1:   1   2
(PID.TID 0000.0001) 
(PID.TID 0000.0001)  MDSREADFIELD: opening file: xx_uwind.0000000000.001.001.data
(PID.TID 0000.0001)  MDSREADFIELD: opening file: xx_uwind.0000000000.001.001.data
(PID.TID 0000.0001)  MDSREADFIELD: opening file: xx_vwind.0000000000.001.001.data
(PID.TID 0000.0001)  MDSREADFIELD: opening file: xx_vwind.0000000000.001.001.data
(PID.TID 0000.0001) 
(PID.TID 0000.0001)  exf_GetFFieldsRec: first, changed, fac:   F   F   0.49590164E+00
(PID.TID 0000.0001)  exf_GetFFieldsRec:      count0, count1:   1   2
(PID.TID 0000.0001) 
(PID.TID 0000.0001) 
(PID.TID 0000.0001)  exf_GetFFieldsRec: first, changed, fac:   F   F   0.49590164E+00
(PID.TID 0000.0001)  exf_GetFFieldsRec:      count0, count1:   1   2
(PID.TID 0000.0001) 
(PID.TID 0000.0001) 
(PID.TID 0000.0001)  exf_GetFFieldsRec: first, changed, fac:   F   F   0.49590164E+00
(PID.TID 0000.0001)  exf_GetFFieldsRec:      count0, count1:   1   2
(PID.TID 0000.0001) 
(PID.TID 0000.0001)  MDSREADFIELD: opening file: xx_atemp.0000000000.001.001.data
(PID.TID 0000.0001)  MDSREADFIELD: opening file: xx_atemp.0000000000.001.001.data
(PID.TID 0000.0001)  MDSREADFIELD: opening file: xx_aqh.0000000000.001.001.data
(PID.TID 0000.0001)  MDSREADFIELD: opening file: xx_aqh.0000000000.001.001.data
(PID.TID 0000.0001) 
(PID.TID 0000.0001)  exf_GetFFieldsRec: first, changed, fac:   F   F   0.49590164E+00
(PID.TID 0000.0001)  exf_GetFFieldsRec:      count0, count1:   1   2
(PID.TID 0000.0001) 
(PID.TID 0000.0001) 
(PID.TID 0000.0001)  exf_GetFFieldsRec: first, changed, fac:   F   F   0.49590164E+00
(PID.TID 0000.0001)  exf_GetFFieldsRec:      count0, count1:   1   2
(PID.TID 0000.0001) 
 cg2d: Sum(rhs),rhsMax =   3.20620266447413E-15  1.25494322187447E+00
(PID.TID 0000.0001)                    cg2d_init_res =    1.82553144014713E-01
(PID.TID 0000.0001)                       cg2d_iters =    45
(PID.TID 0000.0001)                         cg2d_res =    5.12415163303431E-14
(PID.TID 0000.0001) 
(PID.TID 0000.0001)  exf_GetFFieldsRec: first, changed, fac:   T   F   0.50000000E+00
(PID.TID 0000.0001)  exf_GetFFieldsRec:      count0, count1:   1   2
(PID.TID 0000.0001) 
(PID.TID 0000.0001)  MDSREADFIELD: opening global file: u10m.labsea79
(PID.TID 0000.0001)  MDSREADFIELD: opening global file: u10m.labsea79
(PID.TID 0000.0001) 
(PID.TID 0000.0001)  exf_GetFFieldsRec: first, changed, fac:   T   F   0.50000000E+00
(PID.TID 0000.0001)  exf_GetFFieldsRec:      count0, count1:   1   2
(PID.TID 0000.0001) 
(PID.TID 0000.0001)  MDSREADFIELD: opening global file: v10m.labsea79
(PID.TID 0000.0001)  MDSREADFIELD: opening global file: v10m.labsea79
(PID.TID 0000.0001)  MDSREADFIELD: opening file: xx_uwind.0000000000.001.001.data
(PID.TID 0000.0001)  MDSREADFIELD: opening file: xx_uwind.0000000000.001.001.data
(PID.TID 0000.0001)  MDSREADFIELD: opening file: xx_vwind.0000000000.001.001.data
(PID.TID 0000.0001)  MDSREADFIELD: opening file: xx_vwind.0000000000.001.001.data
(PID.TID 0000.0001) 
(PID.TID 0000.0001)  exf_GetFFieldsRec: first, changed, fac:   T   F   0.50000000E+00
(PID.TID 0000.0001)  exf_GetFFieldsRec:      count0, count1:   1   2
(PID.TID 0000.0001) 
(PID.TID 0000.0001)  MDSREADFIELD: opening global file: tair.labsea1979
(PID.TID 0000.0001)  MDSREADFIELD: opening global file: tair.labsea1979
(PID.TID 0000.0001) 
(PID.TID 0000.0001)  exf_GetFFieldsRec: first, changed, fac:   T   F   0.50000000E+00
(PID.TID 0000.0001)  exf_GetFFieldsRec:      count0, count1:   1   2
(PID.TID 0000.0001) 
(PID.TID 0000.0001)  MDSREADFIELD: opening global file: qa.labsea1979
(PID.TID 0000.0001)  MDSREADFIELD: opening global file: qa.labsea1979
(PID.TID 0000.0001) 
(PID.TID 0000.0001)  exf_GetFFieldsRec: first, changed, fac:   T   F   0.50000000E+00
(PID.TID 0000.0001)  exf_GetFFieldsRec:      count0, count1:   1   2
(PID.TID 0000.0001) 
(PID.TID 0000.0001)  MDSREADFIELD: opening global file: prate.labsea1979
(PID.TID 0000.0001)  MDSREADFIELD: opening global file: prate.labsea1979
(PID.TID 0000.0001)  MDSREADFIELD: opening file: xx_atemp.0000000000.001.001.data
(PID.TID 0000.0001)  MDSREADFIELD: opening file: xx_atemp.0000000000.001.001.data
(PID.TID 0000.0001)  MDSREADFIELD: opening file: xx_aqh.0000000000.001.001.data
(PID.TID 0000.0001)  MDSREADFIELD: opening file: xx_aqh.0000000000.001.001.data
(PID.TID 0000.0001) 
(PID.TID 0000.0001)  exf_GetFFieldsRec: first, changed, fac:   T   F   0.50000000E+00
(PID.TID 0000.0001)  exf_GetFFieldsRec:      count0, count1:   1   2
(PID.TID 0000.0001) 
(PID.TID 0000.0001)  MDSREADFIELD: opening global file: fsh.labsea1979
(PID.TID 0000.0001)  MDSREADFIELD: opening global file: fsh.labsea1979
(PID.TID 0000.0001) 
(PID.TID 0000.0001)  exf_GetFFieldsRec: first, changed, fac:   T   F   0.50000000E+00
(PID.TID 0000.0001)  exf_GetFFieldsRec:      count0, count1:   1   2
(PID.TID 0000.0001) 
(PID.TID 0000.0001)  MDSREADFIELD: opening global file: flo.labsea1979
(PID.TID 0000.0001)  MDSREADFIELD: opening global file: flo.labsea1979
 cg2d: Sum(rhs),rhsMax =  -4.67742636665874E-15  1.73200243157951E-02
(PID.TID 0000.0001) 
(PID.TID 0000.0001)  exf_GetFFieldsRec: first, changed, fac:   T   F   0.50000000E+00
(PID.TID 0000.0001)  exf_GetFFieldsRec:      count0, count1:   1   2
(PID.TID 0000.0001) 
(PID.TID 0000.0001)  MDSREADFIELD: opening global file: u10m.labsea79
(PID.TID 0000.0001)  MDSREADFIELD: opening global file: u10m.labsea79
(PID.TID 0000.0001) 
(PID.TID 0000.0001)  exf_GetFFieldsRec: first, changed, fac:   T   F   0.50000000E+00
(PID.TID 0000.0001)  exf_GetFFieldsRec:      count0, count1:   1   2
(PID.TID 0000.0001) 
(PID.TID 0000.0001)  MDSREADFIELD: opening global file: v10m.labsea79
(PID.TID 0000.0001)  MDSREADFIELD: opening global file: v10m.labsea79
(PID.TID 0000.0001)  MDSREADFIELD: opening file: xx_uwind.0000000000.001.001.data
(PID.TID 0000.0001)  MDSREADFIELD: opening file: xx_uwind.0000000000.001.001.data
(PID.TID 0000.0001)  MDSREADFIELD: opening file: xx_vwind.0000000000.001.001.data
(PID.TID 0000.0001)  MDSREADFIELD: opening file: xx_vwind.0000000000.001.001.data
(PID.TID 0000.0001) 
(PID.TID 0000.0001)  exf_GetFFieldsRec: first, changed, fac:   T   F   0.50000000E+00
(PID.TID 0000.0001)  exf_GetFFieldsRec:      count0, count1:   1   2
(PID.TID 0000.0001) 
(PID.TID 0000.0001)  MDSREADFIELD: opening global file: tair.labsea1979
(PID.TID 0000.0001)  MDSREADFIELD: opening global file: tair.labsea1979
(PID.TID 0000.0001) 
(PID.TID 0000.0001)  exf_GetFFieldsRec: first, changed, fac:   T   F   0.50000000E+00
(PID.TID 0000.0001)  exf_GetFFieldsRec:      count0, count1:   1   2
(PID.TID 0000.0001) 
(PID.TID 0000.0001)  MDSREADFIELD: opening global file: qa.labsea1979
(PID.TID 0000.0001)  MDSREADFIELD: opening global file: qa.labsea1979
(PID.TID 0000.0001) 
(PID.TID 0000.0001)  exf_GetFFieldsRec: first, changed, fac:   T   F   0.50000000E+00
(PID.TID 0000.0001)  exf_GetFFieldsRec:      count0, count1:   1   2
(PID.TID 0000.0001) 
(PID.TID 0000.0001)  MDSREADFIELD: opening global file: prate.labsea1979
(PID.TID 0000.0001)  MDSREADFIELD: opening global file: prate.labsea1979
(PID.TID 0000.0001)  MDSREADFIELD: opening file: xx_atemp.0000000000.001.001.data
(PID.TID 0000.0001)  MDSREADFIELD: opening file: xx_atemp.0000000000.001.001.data
(PID.TID 0000.0001)  MDSREADFIELD: opening file: xx_aqh.0000000000.001.001.data
(PID.TID 0000.0001)  MDSREADFIELD: opening file: xx_aqh.0000000000.001.001.data
(PID.TID 0000.0001) 
(PID.TID 0000.0001)  exf_GetFFieldsRec: first, changed, fac:   T   F   0.50000000E+00
(PID.TID 0000.0001)  exf_GetFFieldsRec:      count0, count1:   1   2
(PID.TID 0000.0001) 
(PID.TID 0000.0001)  MDSREADFIELD: opening global file: fsh.labsea1979
(PID.TID 0000.0001)  MDSREADFIELD: opening global file: fsh.labsea1979
(PID.TID 0000.0001) 
(PID.TID 0000.0001)  exf_GetFFieldsRec: first, changed, fac:   T   F   0.50000000E+00
(PID.TID 0000.0001)  exf_GetFFieldsRec:      count0, count1:   1   2
(PID.TID 0000.0001) 
(PID.TID 0000.0001)  MDSREADFIELD: opening global file: flo.labsea1979
(PID.TID 0000.0001)  MDSREADFIELD: opening global file: flo.labsea1979
(PID.TID 0000.0001) 
(PID.TID 0000.0001)  exf_GetFFieldsRec: first, changed, fac:   T   F   0.50000000E+00
(PID.TID 0000.0001)  exf_GetFFieldsRec:      count0, count1:   1   2
(PID.TID 0000.0001) 
(PID.TID 0000.0001)  MDSREADFIELD: opening global file: u10m.labsea79
(PID.TID 0000.0001)  MDSREADFIELD: opening global file: u10m.labsea79
(PID.TID 0000.0001) 
(PID.TID 0000.0001)  exf_GetFFieldsRec: first, changed, fac:   T   F   0.50000000E+00
(PID.TID 0000.0001)  exf_GetFFieldsRec:      count0, count1:   1   2
(PID.TID 0000.0001) 
(PID.TID 0000.0001)  MDSREADFIELD: opening global file: v10m.labsea79
(PID.TID 0000.0001)  MDSREADFIELD: opening global file: v10m.labsea79
(PID.TID 0000.0001)  MDSREADFIELD: opening file: xx_uwind.0000000000.001.001.data
(PID.TID 0000.0001)  MDSREADFIELD: opening file: xx_uwind.0000000000.001.001.data
(PID.TID 0000.0001)  MDSREADFIELD: opening file: xx_vwind.0000000000.001.001.data
(PID.TID 0000.0001)  MDSREADFIELD: opening file: xx_vwind.0000000000.001.001.data
(PID.TID 0000.0001) 
(PID.TID 0000.0001)  exf_GetFFieldsRec: first, changed, fac:   T   F   0.50000000E+00
(PID.TID 0000.0001)  exf_GetFFieldsRec:      count0, count1:   1   2
(PID.TID 0000.0001) 
(PID.TID 0000.0001)  MDSREADFIELD: opening global file: tair.labsea1979
(PID.TID 0000.0001)  MDSREADFIELD: opening global file: tair.labsea1979
(PID.TID 0000.0001) 
(PID.TID 0000.0001)  exf_GetFFieldsRec: first, changed, fac:   T   F   0.50000000E+00
(PID.TID 0000.0001)  exf_GetFFieldsRec:      count0, count1:   1   2
(PID.TID 0000.0001) 
(PID.TID 0000.0001)  MDSREADFIELD: opening global file: qa.labsea1979
(PID.TID 0000.0001)  MDSREADFIELD: opening global file: qa.labsea1979
(PID.TID 0000.0001)  MDSREADFIELD: opening file: xx_atemp.0000000000.001.001.data
(PID.TID 0000.0001)  MDSREADFIELD: opening file: xx_atemp.0000000000.001.001.data
(PID.TID 0000.0001)  MDSREADFIELD: opening file: xx_aqh.0000000000.001.001.data
(PID.TID 0000.0001)  MDSREADFIELD: opening file: xx_aqh.0000000000.001.001.data
(PID.TID 0000.0001)  MDSREADFIELD: opening file: adxx_aqh.0000000000.001.001.data
(PID.TID 0000.0001)  MDSREADFIELD: opening file: adxx_aqh.0000000000.001.001.data
(PID.TID 0000.0001)  MDSREADFIELD: opening file: adxx_atemp.0000000000.001.001.data
(PID.TID 0000.0001)  MDSREADFIELD: opening file: adxx_atemp.0000000000.001.001.data
(PID.TID 0000.0001)  MDSREADFIELD: opening file: adxx_vwind.0000000000.001.001.data
(PID.TID 0000.0001)  MDSREADFIELD: opening file: adxx_vwind.0000000000.001.001.data
(PID.TID 0000.0001)  MDSREADFIELD: opening file: adxx_uwind.0000000000.001.001.data
(PID.TID 0000.0001)  MDSREADFIELD: opening file: adxx_uwind.0000000000.001.001.data
(PID.TID 0000.0001)  MDSREADFIELD: opening file: xx_vwind.0000000000.001.001.data
(PID.TID 0000.0001)  MDSREADFIELD: opening file: adxx_vwind.0000000000.001.001.data
(PID.TID 0000.0001)  MDSREADFIELD: opening file: xx_vwind.0000000000.001.001.data
(PID.TID 0000.0001)  MDSREADFIELD: opening file: adxx_vwind.0000000000.001.001.data
(PID.TID 0000.0001)  MDSREADFIELD: opening file: xx_uwind.0000000000.001.001.data
(PID.TID 0000.0001)  MDSREADFIELD: opening file: adxx_uwind.0000000000.001.001.data
(PID.TID 0000.0001)  MDSREADFIELD: opening file: xx_uwind.0000000000.001.001.data
(PID.TID 0000.0001)  MDSREADFIELD: opening file: adxx_uwind.0000000000.001.001.data
(PID.TID 0000.0001)  MDSREADFIELD: opening file: xx_aqh.0000000000.001.001.data
(PID.TID 0000.0001)  MDSREADFIELD: opening file: adxx_aqh.0000000000.001.001.data
(PID.TID 0000.0001)  MDSREADFIELD: opening file: xx_aqh.0000000000.001.001.data
(PID.TID 0000.0001)  MDSREADFIELD: opening file: adxx_aqh.0000000000.001.001.data
(PID.TID 0000.0001)  MDSREADFIELD: opening file: xx_atemp.0000000000.001.001.data
(PID.TID 0000.0001)  MDSREADFIELD: opening file: adxx_atemp.0000000000.001.001.data
(PID.TID 0000.0001)  MDSREADFIELD: opening file: xx_atemp.0000000000.001.001.data
(PID.TID 0000.0001)  MDSREADFIELD: opening file: adxx_atemp.0000000000.001.001.data
(PID.TID 0000.0001)  MDSREADFIELD: opening global file: LevCli_temp.labsea
(PID.TID 0000.0001) // =======================================================
(PID.TID 0000.0001) // Field Initial Temperature at iteration          1
(PID.TID 0000.0001) // CMIN =          9.205863475799561E-01
(PID.TID 0000.0001) // CMAX =          1.333307647705078E+01
(PID.TID 0000.0001) // CINT =          4.597218566470676E-01
(PID.TID 0000.0001) // SYMBOLS (CMIN->CMAX): -abcdefghijklmnopqrstuvwxyz+
(PID.TID 0000.0001) //                  0.0: .
(PID.TID 0000.0001) // RANGE I (Lo:Hi:Step):(   1:  20:   1)
(PID.TID 0000.0001) // RANGE J (Lo:Hi:Step):(  16:   1:  -1)
(PID.TID 0000.0001) // RANGE K (Lo:Hi:Step):(   1:   1:   1)
(PID.TID 0000.0001) // =======================================================
(PID.TID 0000.0001) K =   1
(PID.TID 0000.0001)                I=10      I=20
(PID.TID 0000.0001) |--J--|123456789|123456789|
(PID.TID 0000.0001)     16 .----...............
(PID.TID 0000.0001)     15 aabaaaaaaaa.........
(PID.TID 0000.0001)     14 .ccccccbbbbc........
(PID.TID 0000.0001)     13 ....dddddddd........
(PID.TID 0000.0001)     12 ......dcdddddd......
(PID.TID 0000.0001)     11 ........cccdd.......
(PID.TID 0000.0001)     10 .......bbcdddd......
(PID.TID 0000.0001)      9 .......cdeeffff....j
(PID.TID 0000.0001)      8 .....ccdefgghhggh..k
(PID.TID 0000.0001)      7 ......d.fghiiiiiijkl
(PID.TID 0000.0001)      6 .........ghhijjjkklm
(PID.TID 0000.0001)      5 ..........hhhijklmnn
(PID.TID 0000.0001)      4 ............ghikmopq
(PID.TID 0000.0001)      3 ..........k.hhiknqsu
(PID.TID 0000.0001)      2 .......oonm..ijknqux
(PID.TID 0000.0001)      1 ........qponlkklosw+
(PID.TID 0000.0001) // =======================================================
(PID.TID 0000.0001) // END OF FIELD                                          =
(PID.TID 0000.0001) // =======================================================
(PID.TID 0000.0001) 
(PID.TID 0000.0001)  MDSREADFIELD: opening global file: LevCli_salt.labsea
(PID.TID 0000.0001) // =======================================================
(PID.TID 0000.0001) // Field Initial Salinity at iteration          1
(PID.TID 0000.0001) // CMIN =          3.012869834899902E+01
(PID.TID 0000.0001) // CMAX =          3.487366104125977E+01
(PID.TID 0000.0001) // CINT =          1.757393589726201E-01
(PID.TID 0000.0001) // SYMBOLS (CMIN->CMAX): -abcdefghijklmnopqrstuvwxyz+
(PID.TID 0000.0001) //                  0.0: .
(PID.TID 0000.0001) // RANGE I (Lo:Hi:Step):(   1:  20:   1)
(PID.TID 0000.0001) // RANGE J (Lo:Hi:Step):(  16:   1:  -1)
(PID.TID 0000.0001) // RANGE K (Lo:Hi:Step):(   1:   1:   1)
(PID.TID 0000.0001) // =======================================================
(PID.TID 0000.0001) K =   1
(PID.TID 0000.0001)                I=10      I=20
(PID.TID 0000.0001) |--J--|123456789|123456789|
(PID.TID 0000.0001)     16 .nnos...............
(PID.TID 0000.0001)     15 lnoppppppol.........
(PID.TID 0000.0001)     14 .nponmllllmn........
(PID.TID 0000.0001)     13 ....ljhijkmo........
(PID.TID 0000.0001)     12 ......ghjlmors......
(PID.TID 0000.0001)     11 ........jmnpr.......
(PID.TID 0000.0001)     10 .......jlnpqrq......
(PID.TID 0000.0001)      9 .......noqsttts....w
(PID.TID 0000.0001)      8 .....jlnpsuvwwutu..x
(PID.TID 0000.0001)      7 ......j.rruwxyxxwxxy
(PID.TID 0000.0001)      6 .........ppruxyyzzzz
(PID.TID 0000.0001)      5 ..........ijoswyzzzz
(PID.TID 0000.0001)      4 ............iotwyzzz
(PID.TID 0000.0001)      3 ..........g.imquwyzz
(PID.TID 0000.0001)      2 .......-bef..knqtvxz
(PID.TID 0000.0001)      1 ........-cegijlosvy+
(PID.TID 0000.0001) // =======================================================
(PID.TID 0000.0001) // END OF FIELD                                          =
(PID.TID 0000.0001) // =======================================================
(PID.TID 0000.0001) 
(PID.TID 0000.0001)  MDSREADFIELD: opening global file: LevCli_temp.labsea
(PID.TID 0000.0001) // =======================================================
(PID.TID 0000.0001) // Field Initial Temperature at iteration          1
(PID.TID 0000.0001) // CMIN =          9.205863475799561E-01
(PID.TID 0000.0001) // CMAX =          1.333307647705078E+01
(PID.TID 0000.0001) // CINT =          4.597218566470676E-01
(PID.TID 0000.0001) // SYMBOLS (CMIN->CMAX): -abcdefghijklmnopqrstuvwxyz+
(PID.TID 0000.0001) //                  0.0: .
(PID.TID 0000.0001) // RANGE I (Lo:Hi:Step):(   1:  20:   1)
(PID.TID 0000.0001) // RANGE J (Lo:Hi:Step):(  16:   1:  -1)
(PID.TID 0000.0001) // RANGE K (Lo:Hi:Step):(   1:   1:   1)
(PID.TID 0000.0001) // =======================================================
(PID.TID 0000.0001) K =   1
(PID.TID 0000.0001)                I=10      I=20
(PID.TID 0000.0001) |--J--|123456789|123456789|
(PID.TID 0000.0001)     16 .----...............
(PID.TID 0000.0001)     15 aabaaaaaaaa.........
(PID.TID 0000.0001)     14 .ccccccbbbbc........
(PID.TID 0000.0001)     13 ....dddddddd........
(PID.TID 0000.0001)     12 ......dcdddddd......
(PID.TID 0000.0001)     11 ........cccdd.......
(PID.TID 0000.0001)     10 .......bbcdddd......
(PID.TID 0000.0001)      9 .......cdeeffff....j
(PID.TID 0000.0001)      8 .....ccdefgghhggh..k
(PID.TID 0000.0001)      7 ......d.fghiiiiiijkl
(PID.TID 0000.0001)      6 .........ghhijjjkklm
(PID.TID 0000.0001)      5 ..........hhhijklmnn
(PID.TID 0000.0001)      4 ............ghikmopq
(PID.TID 0000.0001)      3 ..........k.hhiknqsu
(PID.TID 0000.0001)      2 .......oonm..ijknqux
(PID.TID 0000.0001)      1 ........qponlkklosw+
(PID.TID 0000.0001) // =======================================================
(PID.TID 0000.0001) // END OF FIELD                                          =
(PID.TID 0000.0001) // =======================================================
(PID.TID 0000.0001) 
(PID.TID 0000.0001)  MDSREADFIELD: opening global file: LevCli_salt.labsea
(PID.TID 0000.0001) // =======================================================
(PID.TID 0000.0001) // Field Initial Salinity at iteration          1
(PID.TID 0000.0001) // CMIN =          3.012869834899902E+01
(PID.TID 0000.0001) // CMAX =          3.487366104125977E+01
(PID.TID 0000.0001) // CINT =          1.757393589726201E-01
(PID.TID 0000.0001) // SYMBOLS (CMIN->CMAX): -abcdefghijklmnopqrstuvwxyz+
(PID.TID 0000.0001) //                  0.0: .
(PID.TID 0000.0001) // RANGE I (Lo:Hi:Step):(   1:  20:   1)
(PID.TID 0000.0001) // RANGE J (Lo:Hi:Step):(  16:   1:  -1)
(PID.TID 0000.0001) // RANGE K (Lo:Hi:Step):(   1:   1:   1)
(PID.TID 0000.0001) // =======================================================
(PID.TID 0000.0001) K =   1
(PID.TID 0000.0001)                I=10      I=20
(PID.TID 0000.0001) |--J--|123456789|123456789|
(PID.TID 0000.0001)     16 .nnos...............
(PID.TID 0000.0001)     15 lnoppppppol.........
(PID.TID 0000.0001)     14 .nponmllllmn........
(PID.TID 0000.0001)     13 ....ljhijkmo........
(PID.TID 0000.0001)     12 ......ghjlmors......
(PID.TID 0000.0001)     11 ........jmnpr.......
(PID.TID 0000.0001)     10 .......jlnpqrq......
(PID.TID 0000.0001)      9 .......noqsttts....w
(PID.TID 0000.0001)      8 .....jlnpsuvwwutu..x
(PID.TID 0000.0001)      7 ......j.rruwxyxxwxxy
(PID.TID 0000.0001)      6 .........ppruxyyzzzz
(PID.TID 0000.0001)      5 ..........ijoswyzzzz
(PID.TID 0000.0001)      4 ............iotwyzzz
(PID.TID 0000.0001)      3 ..........g.imquwyzz
(PID.TID 0000.0001)      2 .......-bef..knqtvxz
(PID.TID 0000.0001)      1 ........-cegijlosvy+
(PID.TID 0000.0001) // =======================================================
(PID.TID 0000.0001) // END OF FIELD                                          =
(PID.TID 0000.0001) // =======================================================
(PID.TID 0000.0001) 
(PID.TID 0000.0001)  MDSREADFIELD: opening file: xx_theta.0000000000.001.001.data
(PID.TID 0000.0001)  MDSREADFIELD: opening file: adxx_salt.0000000000.001.001.data
(PID.TID 0000.0001)  MDSREADFIELD: opening file: adxx_salt.0000000000.001.001.data
(PID.TID 0000.0001)  MDSREADFIELD: opening file: adxx_salt.0000000000.001.001.data
(PID.TID 0000.0001)  MDSREADFIELD: opening file: adxx_salt.0000000000.001.001.data
(PID.TID 0000.0001)  MDSREADFIELD: opening file: adxx_salt.0000000000.001.001.data
(PID.TID 0000.0001)  MDSREADFIELD: opening file: adxx_salt.0000000000.001.001.data
(PID.TID 0000.0001)  MDSREADFIELD: opening file: adxx_salt.0000000000.001.001.data
(PID.TID 0000.0001)  MDSREADFIELD: opening file: adxx_salt.0000000000.001.001.data
(PID.TID 0000.0001)  MDSREADFIELD: opening file: adxx_salt.0000000000.001.001.data
(PID.TID 0000.0001)  MDSREADFIELD: opening file: adxx_salt.0000000000.001.001.data
(PID.TID 0000.0001)  MDSREADFIELD: opening file: adxx_salt.0000000000.001.001.data
(PID.TID 0000.0001)  MDSREADFIELD: opening file: adxx_salt.0000000000.001.001.data
(PID.TID 0000.0001)  MDSREADFIELD: opening file: adxx_salt.0000000000.001.001.data
(PID.TID 0000.0001)  MDSREADFIELD: opening file: adxx_salt.0000000000.001.001.data
(PID.TID 0000.0001)  MDSREADFIELD: opening file: adxx_salt.0000000000.001.001.data
(PID.TID 0000.0001)  MDSREADFIELD: opening file: adxx_salt.0000000000.001.001.data
(PID.TID 0000.0001)  MDSREADFIELD: opening file: adxx_salt.0000000000.001.001.data
(PID.TID 0000.0001)  MDSREADFIELD: opening file: adxx_salt.0000000000.001.001.data
(PID.TID 0000.0001)  MDSREADFIELD: opening file: adxx_salt.0000000000.001.001.data
(PID.TID 0000.0001)  MDSREADFIELD: opening file: adxx_salt.0000000000.001.001.data
(PID.TID 0000.0001)  MDSREADFIELD: opening file: adxx_salt.0000000000.001.001.data
(PID.TID 0000.0001)  MDSREADFIELD: opening file: adxx_salt.0000000000.001.001.data
(PID.TID 0000.0001)  MDSREADFIELD: opening file: adxx_salt.0000000000.001.001.data
(PID.TID 0000.0001)  MDSREADFIELD: opening file: adxx_theta.0000000000.001.001.data
(PID.TID 0000.0001)  MDSREADFIELD: opening file: adxx_theta.0000000000.001.001.data
(PID.TID 0000.0001)  MDSREADFIELD: opening file: adxx_theta.0000000000.001.001.data
(PID.TID 0000.0001)  MDSREADFIELD: opening file: adxx_theta.0000000000.001.001.data
(PID.TID 0000.0001)  MDSREADFIELD: opening file: adxx_theta.0000000000.001.001.data
(PID.TID 0000.0001)  MDSREADFIELD: opening file: adxx_theta.0000000000.001.001.data
(PID.TID 0000.0001)  MDSREADFIELD: opening file: adxx_theta.0000000000.001.001.data
(PID.TID 0000.0001)  MDSREADFIELD: opening file: adxx_theta.0000000000.001.001.data
(PID.TID 0000.0001)  MDSREADFIELD: opening file: adxx_theta.0000000000.001.001.data
(PID.TID 0000.0001)  MDSREADFIELD: opening file: adxx_theta.0000000000.001.001.data
(PID.TID 0000.0001)  MDSREADFIELD: opening file: adxx_theta.0000000000.001.001.data
(PID.TID 0000.0001)  MDSREADFIELD: opening file: adxx_theta.0000000000.001.001.data
(PID.TID 0000.0001)  MDSREADFIELD: opening file: adxx_theta.0000000000.001.001.data
(PID.TID 0000.0001)  MDSREADFIELD: opening file: adxx_theta.0000000000.001.001.data
(PID.TID 0000.0001)  MDSREADFIELD: opening file: adxx_theta.0000000000.001.001.data
(PID.TID 0000.0001)  MDSREADFIELD: opening file: adxx_theta.0000000000.001.001.data
(PID.TID 0000.0001)  MDSREADFIELD: opening file: adxx_theta.0000000000.001.001.data
(PID.TID 0000.0001)  MDSREADFIELD: opening file: adxx_theta.0000000000.001.001.data
(PID.TID 0000.0001)  MDSREADFIELD: opening file: adxx_theta.0000000000.001.001.data
(PID.TID 0000.0001)  MDSREADFIELD: opening file: adxx_theta.0000000000.001.001.data
(PID.TID 0000.0001)  MDSREADFIELD: opening file: adxx_theta.0000000000.001.001.data
(PID.TID 0000.0001)  MDSREADFIELD: opening file: adxx_theta.0000000000.001.001.data
(PID.TID 0000.0001)  MDSREADFIELD: opening file: adxx_theta.0000000000.001.001.data
(PID.TID 0000.0001)  MDSREADFIELD_GL: opening file: hFacC.001.001.data
(PID.TID 0000.0001)  MDSREADFIELD_GL: opening file: adxx_theta.0000000000.001.001.data
(PID.TID 0000.0001)  MDSREADFIELD_GL: opening file: hFacC.001.001.data
(PID.TID 0000.0001)  MDSREADFIELD_GL: opening file: adxx_salt.0000000000.001.001.data
(PID.TID 0000.0001)  MDSREADFIELD_GL: opening file: watemp.001.001.data
(PID.TID 0000.0001)  MDSREADFIELD_GL: opening file: hFacC.001.001.data
(PID.TID 0000.0001)  MDSREADFIELD_GL: opening file: adxx_atemp.0000000000.001.001.data
(PID.TID 0000.0001)  MDSREADFIELD_GL: opening file: adxx_atemp.0000000000.001.001.data
(PID.TID 0000.0001)  MDSREADFIELD_GL: opening file: waqh.001.001.data
(PID.TID 0000.0001)  MDSREADFIELD_GL: opening file: hFacC.001.001.data
(PID.TID 0000.0001)  MDSREADFIELD_GL: opening file: adxx_aqh.0000000000.001.001.data
(PID.TID 0000.0001)  MDSREADFIELD_GL: opening file: adxx_aqh.0000000000.001.001.data
(PID.TID 0000.0001)  MDSREADFIELD_GL: opening file: wuwind.001.001.data
(PID.TID 0000.0001)  MDSREADFIELD_GL: opening file: maskW.001.001.data
(PID.TID 0000.0001)  MDSREADFIELD_GL: opening file: adxx_uwind.0000000000.001.001.data
(PID.TID 0000.0001)  MDSREADFIELD_GL: opening file: adxx_uwind.0000000000.001.001.data
(PID.TID 0000.0001)  MDSREADFIELD_GL: opening file: wvwind.001.001.data
(PID.TID 0000.0001)  MDSREADFIELD_GL: opening file: maskS.001.001.data
(PID.TID 0000.0001)  MDSREADFIELD_GL: opening file: adxx_vwind.0000000000.001.001.data
(PID.TID 0000.0001)  MDSREADFIELD_GL: opening file: adxx_vwind.0000000000.001.001.data
 ph-grd 3 -------------------------------
 ph-grd 3  proc    #    i    j    k            fc ref        fc + eps        fc - eps
 ph-grd 3  proc    #    i    j    k          adj grad         fd grad      1 - fd/adj
(PID.TID 0000.0001)  MDSREADFIELD: opening file: adxx_atemp.0000000000.001.001.data
(PID.TID 0000.0001)  MDSREADFIELD: opening file: xx_atemp.0000000000.001.001.data
(PID.TID 0000.0001) 
(PID.TID 0000.0001)  cal_TimeStamp: iter =          0 time =  0.00000000E+00
(PID.TID 0000.0001)                 date =   19790101           0
(PID.TID 0000.0001) 
(PID.TID 0000.0001) %MON fCori_max                    =   1.4171638136144E-04
(PID.TID 0000.0001) %MON fCori_min                    =   1.0637108408252E-04
(PID.TID 0000.0001) %MON fCori_mean                   =   1.2676338344768E-04
(PID.TID 0000.0001) %MON fCori_sd                     =   1.1001401444773E-05
(PID.TID 0000.0001) %MON fCoriG_max                   =   1.4112379284621E-04
(PID.TID 0000.0001) %MON fCoriG_min                   =   1.0462373297123E-04
(PID.TID 0000.0001) %MON fCoriG_mean                  =   1.2556776212280E-04
(PID.TID 0000.0001) %MON fCoriG_sd                    =   1.1352720951562E-05
(PID.TID 0000.0001) // CG2D normalisation factor =          0.1609493984093919507084164E-03
(PID.TID 0000.0001) 
(PID.TID 0000.0001)  MDSREADFIELD: opening global file: LevCli_temp.labsea
(PID.TID 0000.0001) // =======================================================
(PID.TID 0000.0001) // Field Initial Temperature at iteration          1
(PID.TID 0000.0001) // CMIN =          9.205863475799561E-01
(PID.TID 0000.0001) // CMAX =          1.333307647705078E+01
(PID.TID 0000.0001) // CINT =          4.597218566470676E-01
(PID.TID 0000.0001) // SYMBOLS (CMIN->CMAX): -abcdefghijklmnopqrstuvwxyz+
(PID.TID 0000.0001) //                  0.0: .
(PID.TID 0000.0001) // RANGE I (Lo:Hi:Step):(   1:  20:   1)
(PID.TID 0000.0001) // RANGE J (Lo:Hi:Step):(  16:   1:  -1)
(PID.TID 0000.0001) // RANGE K (Lo:Hi:Step):(   1:   1:   1)
(PID.TID 0000.0001) // =======================================================
(PID.TID 0000.0001) K =   1
(PID.TID 0000.0001)                I=10      I=20
(PID.TID 0000.0001) |--J--|123456789|123456789|
(PID.TID 0000.0001)     16 .----...............
(PID.TID 0000.0001)     15 aabaaaaaaaa.........
(PID.TID 0000.0001)     14 .ccccccbbbbc........
(PID.TID 0000.0001)     13 ....dddddddd........
(PID.TID 0000.0001)     12 ......dcdddddd......
(PID.TID 0000.0001)     11 ........cccdd.......
(PID.TID 0000.0001)     10 .......bbcdddd......
(PID.TID 0000.0001)      9 .......cdeeffff....j
(PID.TID 0000.0001)      8 .....ccdefgghhggh..k
(PID.TID 0000.0001)      7 ......d.fghiiiiiijkl
(PID.TID 0000.0001)      6 .........ghhijjjkklm
(PID.TID 0000.0001)      5 ..........hhhijklmnn
(PID.TID 0000.0001)      4 ............ghikmopq
(PID.TID 0000.0001)      3 ..........k.hhiknqsu
(PID.TID 0000.0001)      2 .......oonm..ijknqux
(PID.TID 0000.0001)      1 ........qponlkklosw+
(PID.TID 0000.0001) // =======================================================
(PID.TID 0000.0001) // END OF FIELD                                          =
(PID.TID 0000.0001) // =======================================================
(PID.TID 0000.0001) 
(PID.TID 0000.0001)  MDSREADFIELD: opening global file: LevCli_salt.labsea
(PID.TID 0000.0001) // =======================================================
(PID.TID 0000.0001) // Field Initial Salinity at iteration          1
(PID.TID 0000.0001) // CMIN =          3.012869834899902E+01
(PID.TID 0000.0001) // CMAX =          3.487366104125977E+01
(PID.TID 0000.0001) // CINT =          1.757393589726201E-01
(PID.TID 0000.0001) // SYMBOLS (CMIN->CMAX): -abcdefghijklmnopqrstuvwxyz+
(PID.TID 0000.0001) //                  0.0: .
(PID.TID 0000.0001) // RANGE I (Lo:Hi:Step):(   1:  20:   1)
(PID.TID 0000.0001) // RANGE J (Lo:Hi:Step):(  16:   1:  -1)
(PID.TID 0000.0001) // RANGE K (Lo:Hi:Step):(   1:   1:   1)
(PID.TID 0000.0001) // =======================================================
(PID.TID 0000.0001) K =   1
(PID.TID 0000.0001)                I=10      I=20
(PID.TID 0000.0001) |--J--|123456789|123456789|
(PID.TID 0000.0001)     16 .nnos...............
(PID.TID 0000.0001)     15 lnoppppppol.........
(PID.TID 0000.0001)     14 .nponmllllmn........
(PID.TID 0000.0001)     13 ....ljhijkmo........
(PID.TID 0000.0001)     12 ......ghjlmors......
(PID.TID 0000.0001)     11 ........jmnpr.......
(PID.TID 0000.0001)     10 .......jlnpqrq......
(PID.TID 0000.0001)      9 .......noqsttts....w
(PID.TID 0000.0001)      8 .....jlnpsuvwwutu..x
(PID.TID 0000.0001)      7 ......j.rruwxyxxwxxy
(PID.TID 0000.0001)      6 .........ppruxyyzzzz
(PID.TID 0000.0001)      5 ..........ijoswyzzzz
(PID.TID 0000.0001)      4 ............iotwyzzz
(PID.TID 0000.0001)      3 ..........g.imquwyzz
(PID.TID 0000.0001)      2 .......-bef..knqtvxz
(PID.TID 0000.0001)      1 ........-cegijlosvy+
(PID.TID 0000.0001) // =======================================================
(PID.TID 0000.0001) // END OF FIELD                                          =
(PID.TID 0000.0001) // =======================================================
(PID.TID 0000.0001) 
(PID.TID 0000.0001)  MDSREADFIELD: opening file: xx_theta.0000000000.001.001.data
(PID.TID 0000.0001)  MDSREADFIELD: opening file: xx_salt.0000000000.001.001.data
(PID.TID 0000.0001) // =======================================================
(PID.TID 0000.0001) // Model current state
(PID.TID 0000.0001) // =======================================================
(PID.TID 0000.0001) 
(PID.TID 0000.0001) // =======================================================
(PID.TID 0000.0001) // Begin MONITOR dynamic field statistics
(PID.TID 0000.0001) // =======================================================
(PID.TID 0000.0001) %MON time_tsnumber                =                     0
(PID.TID 0000.0001) %MON time_secondsf                =   0.0000000000000E+00
(PID.TID 0000.0001) %MON time_secondsi                =                     0
(PID.TID 0000.0001) %MON dynstat_eta_max              =   0.0000000000000E+00
(PID.TID 0000.0001) %MON dynstat_eta_min              =   0.0000000000000E+00
(PID.TID 0000.0001) %MON dynstat_eta_mean             =   0.0000000000000E+00
(PID.TID 0000.0001) %MON dynstat_eta_sd               =   0.0000000000000E+00
(PID.TID 0000.0001) %MON dynstat_eta_del2             =   0.0000000000000E+00
(PID.TID 0000.0001) %MON dynstat_uvel_max             =   0.0000000000000E+00
(PID.TID 0000.0001) %MON dynstat_uvel_min             =   0.0000000000000E+00
(PID.TID 0000.0001) %MON dynstat_uvel_mean            =   0.0000000000000E+00
(PID.TID 0000.0001) %MON dynstat_uvel_sd              =   0.0000000000000E+00
(PID.TID 0000.0001) %MON dynstat_uvel_del2            =   0.0000000000000E+00
(PID.TID 0000.0001) %MON dynstat_vvel_max             =   0.0000000000000E+00
(PID.TID 0000.0001) %MON dynstat_vvel_min             =   0.0000000000000E+00
(PID.TID 0000.0001) %MON dynstat_vvel_mean            =   0.0000000000000E+00
(PID.TID 0000.0001) %MON dynstat_vvel_sd              =   0.0000000000000E+00
(PID.TID 0000.0001) %MON dynstat_vvel_del2            =   0.0000000000000E+00
(PID.TID 0000.0001) %MON dynstat_wvel_max             =   0.0000000000000E+00
(PID.TID 0000.0001) %MON dynstat_wvel_min             =   0.0000000000000E+00
(PID.TID 0000.0001) %MON dynstat_wvel_mean            =   0.0000000000000E+00
(PID.TID 0000.0001) %MON dynstat_wvel_sd              =   0.0000000000000E+00
(PID.TID 0000.0001) %MON dynstat_wvel_del2            =   0.0000000000000E+00
(PID.TID 0000.0001) %MON dynstat_theta_max            =   1.3333076477051E+01
(PID.TID 0000.0001) %MON dynstat_theta_min            =  -1.4103618860245E+00
(PID.TID 0000.0001) %MON dynstat_theta_mean           =   3.1168426975828E+00
(PID.TID 0000.0001) %MON dynstat_theta_sd             =   1.4047681849177E+00
(PID.TID 0000.0001) %MON dynstat_theta_del2           =   9.7237468258508E-02
(PID.TID 0000.0001) %MON dynstat_salt_max             =   3.5450622558594E+01
(PID.TID 0000.0001) %MON dynstat_salt_min             =   3.0128698348999E+01
(PID.TID 0000.0001) %MON dynstat_salt_mean            =   3.4759355674691E+01
(PID.TID 0000.0001) %MON dynstat_salt_sd              =   4.4306214753982E-01
(PID.TID 0000.0001) %MON dynstat_salt_del2            =   3.8354629598638E-02
(PID.TID 0000.0001) %MON advcfl_uvel_max              =   0.0000000000000E+00
(PID.TID 0000.0001) %MON advcfl_vvel_max              =   0.0000000000000E+00
(PID.TID 0000.0001) %MON advcfl_wvel_max              =   0.0000000000000E+00
(PID.TID 0000.0001) %MON advcfl_W_hf_max              =   0.0000000000000E+00
(PID.TID 0000.0001) %MON ke_max                       =   0.0000000000000E+00
(PID.TID 0000.0001) %MON ke_mean                      =   0.0000000000000E+00
(PID.TID 0000.0001) %MON ke_volint                    =   0.0000000000000E+00
(PID.TID 0000.0001) %MON ke_volmean                   =   0.0000000000000E+00
(PID.TID 0000.0001) // =======================================================
(PID.TID 0000.0001) // End MONITOR dynamic field statistics
(PID.TID 0000.0001) // =======================================================
(PID.TID 0000.0001)  MDSREADFIELD: opening file: xx_atemp.0000000000.001.001.data
(PID.TID 0000.0001)  MDSREADFIELD: opening file: xx_atemp.0000000000.001.001.data
(PID.TID 0000.0001)  MDSREADFIELD: opening file: xx_aqh.0000000000.001.001.data
(PID.TID 0000.0001)  MDSREADFIELD: opening file: xx_aqh.0000000000.001.001.data
(PID.TID 0000.0001)  MDSREADFIELD: opening file: xx_uwind.0000000000.001.001.data
(PID.TID 0000.0001)  MDSREADFIELD: opening file: xx_uwind.0000000000.001.001.data
(PID.TID 0000.0001)  MDSREADFIELD: opening file: xx_vwind.0000000000.001.001.data
(PID.TID 0000.0001)  MDSREADFIELD: opening file: xx_vwind.0000000000.001.001.data
(PID.TID 0000.0001) 
(PID.TID 0000.0001)  exf_GetFFieldsRec: first, changed, fac:   T   F   0.50000000E+00
(PID.TID 0000.0001)  exf_GetFFieldsRec:      count0, count1:   1   2
(PID.TID 0000.0001) 
(PID.TID 0000.0001)  MDSREADFIELD: opening global file: u10m.labsea79
(PID.TID 0000.0001)  MDSREADFIELD: opening global file: u10m.labsea79
(PID.TID 0000.0001) 
(PID.TID 0000.0001)  exf_GetFFieldsRec: first, changed, fac:   T   F   0.50000000E+00
(PID.TID 0000.0001)  exf_GetFFieldsRec:      count0, count1:   1   2
(PID.TID 0000.0001) 
(PID.TID 0000.0001)  MDSREADFIELD: opening global file: v10m.labsea79
(PID.TID 0000.0001)  MDSREADFIELD: opening global file: v10m.labsea79
(PID.TID 0000.0001)  MDSREADFIELD: opening file: xx_uwind.0000000000.001.001.data
(PID.TID 0000.0001)  MDSREADFIELD: opening file: xx_uwind.0000000000.001.001.data
(PID.TID 0000.0001)  MDSREADFIELD: opening file: xx_vwind.0000000000.001.001.data
(PID.TID 0000.0001)  MDSREADFIELD: opening file: xx_vwind.0000000000.001.001.data
(PID.TID 0000.0001) 
(PID.TID 0000.0001)  exf_GetFFieldsRec: first, changed, fac:   T   F   0.50000000E+00
(PID.TID 0000.0001)  exf_GetFFieldsRec:      count0, count1:   1   2
(PID.TID 0000.0001) 
(PID.TID 0000.0001)  MDSREADFIELD: opening global file: tair.labsea1979
(PID.TID 0000.0001)  MDSREADFIELD: opening global file: tair.labsea1979
(PID.TID 0000.0001) 
(PID.TID 0000.0001)  exf_GetFFieldsRec: first, changed, fac:   T   F   0.50000000E+00
(PID.TID 0000.0001)  exf_GetFFieldsRec:      count0, count1:   1   2
(PID.TID 0000.0001) 
(PID.TID 0000.0001)  MDSREADFIELD: opening global file: qa.labsea1979
(PID.TID 0000.0001)  MDSREADFIELD: opening global file: qa.labsea1979
(PID.TID 0000.0001) 
(PID.TID 0000.0001)  exf_GetFFieldsRec: first, changed, fac:   T   F   0.50000000E+00
(PID.TID 0000.0001)  exf_GetFFieldsRec:      count0, count1:   1   2
(PID.TID 0000.0001) 
(PID.TID 0000.0001)  MDSREADFIELD: opening global file: prate.labsea1979
(PID.TID 0000.0001)  MDSREADFIELD: opening global file: prate.labsea1979
(PID.TID 0000.0001)  MDSREADFIELD: opening file: xx_atemp.0000000000.001.001.data
(PID.TID 0000.0001)  MDSREADFIELD: opening file: xx_atemp.0000000000.001.001.data
(PID.TID 0000.0001)  MDSREADFIELD: opening file: xx_aqh.0000000000.001.001.data
(PID.TID 0000.0001)  MDSREADFIELD: opening file: xx_aqh.0000000000.001.001.data
(PID.TID 0000.0001) 
(PID.TID 0000.0001)  exf_GetFFieldsRec: first, changed, fac:   T   F   0.50000000E+00
(PID.TID 0000.0001)  exf_GetFFieldsRec:      count0, count1:   1   2
(PID.TID 0000.0001) 
(PID.TID 0000.0001)  MDSREADFIELD: opening global file: fsh.labsea1979
(PID.TID 0000.0001)  MDSREADFIELD: opening global file: fsh.labsea1979
(PID.TID 0000.0001) 
(PID.TID 0000.0001)  exf_GetFFieldsRec: first, changed, fac:   T   F   0.50000000E+00
(PID.TID 0000.0001)  exf_GetFFieldsRec:      count0, count1:   1   2
(PID.TID 0000.0001) 
(PID.TID 0000.0001)  MDSREADFIELD: opening global file: flo.labsea1979
(PID.TID 0000.0001)  MDSREADFIELD: opening global file: flo.labsea1979
 pathei: in check_exp: iter/time/rec/yprefix  0  0. 1 kf_
 pathei: in check_exp: date   0
 pathei: in check_exp: theta  -1.96
 pathei: in check_exp: salt    32.5598145
 pathei: in check_exp: uvel    0.
 pathei: in check_exp: vvel    0.
 pathei: in check_exp: qnet    0.
 pathei: in check_exp: empmr  -0.000153695737
 pathei: in check_exp: fu      0.0119642461
 pathei: in check_exp: fv     -0.0250166478
 cg2d: Sum(rhs),rhsMax =   1.95590071916385E-16  1.00807802167630E+00
(PID.TID 0000.0001)                    cg2d_init_res =    1.61521300655486E+00
(PID.TID 0000.0001)                       cg2d_iters =    47
(PID.TID 0000.0001)                         cg2d_res =    5.70138941994743E-14
(PID.TID 0000.0001) 
(PID.TID 0000.0001)  cal_TimeStamp: iter =          1 time =  0.36000000E+04
(PID.TID 0000.0001)                 date =   19790101       10000
(PID.TID 0000.0001) 
(PID.TID 0000.0001) 
(PID.TID 0000.0001)  exf_GetFFieldsRec: first, changed, fac:   F   F   0.49863388E+00
(PID.TID 0000.0001)  exf_GetFFieldsRec:      count0, count1:   1   2
(PID.TID 0000.0001) 
(PID.TID 0000.0001) 
(PID.TID 0000.0001)  exf_GetFFieldsRec: first, changed, fac:   F   F   0.49863388E+00
(PID.TID 0000.0001)  exf_GetFFieldsRec:      count0, count1:   1   2
(PID.TID 0000.0001) 
(PID.TID 0000.0001)  MDSREADFIELD: opening file: xx_uwind.0000000000.001.001.data
(PID.TID 0000.0001)  MDSREADFIELD: opening file: xx_uwind.0000000000.001.001.data
(PID.TID 0000.0001)  MDSREADFIELD: opening file: xx_vwind.0000000000.001.001.data
(PID.TID 0000.0001)  MDSREADFIELD: opening file: xx_vwind.0000000000.001.001.data
(PID.TID 0000.0001) 
(PID.TID 0000.0001)  exf_GetFFieldsRec: first, changed, fac:   F   F   0.49863388E+00
(PID.TID 0000.0001)  exf_GetFFieldsRec:      count0, count1:   1   2
(PID.TID 0000.0001) 
(PID.TID 0000.0001) 
(PID.TID 0000.0001)  exf_GetFFieldsRec: first, changed, fac:   F   F   0.49863388E+00
(PID.TID 0000.0001)  exf_GetFFieldsRec:      count0, count1:   1   2
(PID.TID 0000.0001) 
(PID.TID 0000.0001) 
(PID.TID 0000.0001)  exf_GetFFieldsRec: first, changed, fac:   F   F   0.49863388E+00
(PID.TID 0000.0001)  exf_GetFFieldsRec:      count0, count1:   1   2
(PID.TID 0000.0001) 
(PID.TID 0000.0001)  MDSREADFIELD: opening file: xx_atemp.0000000000.001.001.data
(PID.TID 0000.0001)  MDSREADFIELD: opening file: xx_atemp.0000000000.001.001.data
(PID.TID 0000.0001)  MDSREADFIELD: opening file: xx_aqh.0000000000.001.001.data
(PID.TID 0000.0001)  MDSREADFIELD: opening file: xx_aqh.0000000000.001.001.data
(PID.TID 0000.0001) 
(PID.TID 0000.0001)  exf_GetFFieldsRec: first, changed, fac:   F   F   0.49863388E+00
(PID.TID 0000.0001)  exf_GetFFieldsRec:      count0, count1:   1   2
(PID.TID 0000.0001) 
(PID.TID 0000.0001) 
(PID.TID 0000.0001)  exf_GetFFieldsRec: first, changed, fac:   F   F   0.49863388E+00
(PID.TID 0000.0001)  exf_GetFFieldsRec:      count0, count1:   1   2
(PID.TID 0000.0001) 
 cg2d: Sum(rhs),rhsMax =   7.37474317724640E-16  1.23585471329616E+00
(PID.TID 0000.0001)                    cg2d_init_res =    3.48544561450945E-01
(PID.TID 0000.0001)                       cg2d_iters =    45
(PID.TID 0000.0001)                         cg2d_res =    6.49477568692734E-14
(PID.TID 0000.0001) 
(PID.TID 0000.0001)  cal_TimeStamp: iter =          2 time =  0.72000000E+04
(PID.TID 0000.0001)                 date =   19790101       20000
(PID.TID 0000.0001) 
(PID.TID 0000.0001) 
(PID.TID 0000.0001)  exf_GetFFieldsRec: first, changed, fac:   F   F   0.49726776E+00
(PID.TID 0000.0001)  exf_GetFFieldsRec:      count0, count1:   1   2
(PID.TID 0000.0001) 
(PID.TID 0000.0001) 
(PID.TID 0000.0001)  exf_GetFFieldsRec: first, changed, fac:   F   F   0.49726776E+00
(PID.TID 0000.0001)  exf_GetFFieldsRec:      count0, count1:   1   2
(PID.TID 0000.0001) 
(PID.TID 0000.0001)  MDSREADFIELD: opening file: xx_uwind.0000000000.001.001.data
(PID.TID 0000.0001)  MDSREADFIELD: opening file: xx_uwind.0000000000.001.001.data
(PID.TID 0000.0001)  MDSREADFIELD: opening file: xx_vwind.0000000000.001.001.data
(PID.TID 0000.0001)  MDSREADFIELD: opening file: xx_vwind.0000000000.001.001.data
(PID.TID 0000.0001) 
(PID.TID 0000.0001)  exf_GetFFieldsRec: first, changed, fac:   F   F   0.49726776E+00
(PID.TID 0000.0001)  exf_GetFFieldsRec:      count0, count1:   1   2
(PID.TID 0000.0001) 
(PID.TID 0000.0001) 
(PID.TID 0000.0001)  exf_GetFFieldsRec: first, changed, fac:   F   F   0.49726776E+00
(PID.TID 0000.0001)  exf_GetFFieldsRec:      count0, count1:   1   2
(PID.TID 0000.0001) 
(PID.TID 0000.0001) 
(PID.TID 0000.0001)  exf_GetFFieldsRec: first, changed, fac:   F   F   0.49726776E+00
(PID.TID 0000.0001)  exf_GetFFieldsRec:      count0, count1:   1   2
(PID.TID 0000.0001) 
(PID.TID 0000.0001)  MDSREADFIELD: opening file: xx_atemp.0000000000.001.001.data
(PID.TID 0000.0001)  MDSREADFIELD: opening file: xx_atemp.0000000000.001.001.data
(PID.TID 0000.0001)  MDSREADFIELD: opening file: xx_aqh.0000000000.001.001.data
(PID.TID 0000.0001)  MDSREADFIELD: opening file: xx_aqh.0000000000.001.001.data
(PID.TID 0000.0001) 
(PID.TID 0000.0001)  exf_GetFFieldsRec: first, changed, fac:   F   F   0.49726776E+00
(PID.TID 0000.0001)  exf_GetFFieldsRec:      count0, count1:   1   2
(PID.TID 0000.0001) 
(PID.TID 0000.0001) 
(PID.TID 0000.0001)  exf_GetFFieldsRec: first, changed, fac:   F   F   0.49726776E+00
(PID.TID 0000.0001)  exf_GetFFieldsRec:      count0, count1:   1   2
(PID.TID 0000.0001) 
 cg2d: Sum(rhs),rhsMax =   6.20553955443803E-15  1.25438452343302E+00
(PID.TID 0000.0001)                    cg2d_init_res =    2.36078257971889E-01
(PID.TID 0000.0001)                       cg2d_iters =    45
(PID.TID 0000.0001)                         cg2d_res =    6.62546240702124E-14
(PID.TID 0000.0001) 
(PID.TID 0000.0001)  cal_TimeStamp: iter =          3 time =  0.10800000E+05
(PID.TID 0000.0001)                 date =   19790101       30000
(PID.TID 0000.0001) 
(PID.TID 0000.0001) 
(PID.TID 0000.0001)  exf_GetFFieldsRec: first, changed, fac:   F   F   0.49590164E+00
(PID.TID 0000.0001)  exf_GetFFieldsRec:      count0, count1:   1   2
(PID.TID 0000.0001) 
(PID.TID 0000.0001) 
(PID.TID 0000.0001)  exf_GetFFieldsRec: first, changed, fac:   F   F   0.49590164E+00
(PID.TID 0000.0001)  exf_GetFFieldsRec:      count0, count1:   1   2
(PID.TID 0000.0001) 
(PID.TID 0000.0001)  MDSREADFIELD: opening file: xx_uwind.0000000000.001.001.data
(PID.TID 0000.0001)  MDSREADFIELD: opening file: xx_uwind.0000000000.001.001.data
(PID.TID 0000.0001)  MDSREADFIELD: opening file: xx_vwind.0000000000.001.001.data
(PID.TID 0000.0001)  MDSREADFIELD: opening file: xx_vwind.0000000000.001.001.data
(PID.TID 0000.0001) 
(PID.TID 0000.0001)  exf_GetFFieldsRec: first, changed, fac:   F   F   0.49590164E+00
(PID.TID 0000.0001)  exf_GetFFieldsRec:      count0, count1:   1   2
(PID.TID 0000.0001) 
(PID.TID 0000.0001) 
(PID.TID 0000.0001)  exf_GetFFieldsRec: first, changed, fac:   F   F   0.49590164E+00
(PID.TID 0000.0001)  exf_GetFFieldsRec:      count0, count1:   1   2
(PID.TID 0000.0001) 
(PID.TID 0000.0001) 
(PID.TID 0000.0001)  exf_GetFFieldsRec: first, changed, fac:   F   F   0.49590164E+00
(PID.TID 0000.0001)  exf_GetFFieldsRec:      count0, count1:   1   2
(PID.TID 0000.0001) 
(PID.TID 0000.0001)  MDSREADFIELD: opening file: xx_atemp.0000000000.001.001.data
(PID.TID 0000.0001)  MDSREADFIELD: opening file: xx_atemp.0000000000.001.001.data
(PID.TID 0000.0001)  MDSREADFIELD: opening file: xx_aqh.0000000000.001.001.data
(PID.TID 0000.0001)  MDSREADFIELD: opening file: xx_aqh.0000000000.001.001.data
(PID.TID 0000.0001) 
(PID.TID 0000.0001)  exf_GetFFieldsRec: first, changed, fac:   F   F   0.49590164E+00
(PID.TID 0000.0001)  exf_GetFFieldsRec:      count0, count1:   1   2
(PID.TID 0000.0001) 
(PID.TID 0000.0001) 
(PID.TID 0000.0001)  exf_GetFFieldsRec: first, changed, fac:   F   F   0.49590164E+00
(PID.TID 0000.0001)  exf_GetFFieldsRec:      count0, count1:   1   2
(PID.TID 0000.0001) 
 cg2d: Sum(rhs),rhsMax =   3.20620266447413E-15  1.25494322187447E+00
(PID.TID 0000.0001)                    cg2d_init_res =    1.82553144014713E-01
(PID.TID 0000.0001)                       cg2d_iters =    45
(PID.TID 0000.0001)                         cg2d_res =    5.12415163303431E-14
(PID.TID 0000.0001) 
(PID.TID 0000.0001)  cal_TimeStamp: iter =          4 time =  0.14400000E+05
(PID.TID 0000.0001)                 date =   19790101       40000
(PID.TID 0000.0001) 
(PID.TID 0000.0001)  MDSREADFIELD: opening file: tbar.0000000000.001.001.data
(PID.TID 0000.0001)  MDSREADFIELD: opening global file: labsea_SST_fields
(PID.TID 0000.0001)  MDSREADFIELD: opening file: tbar.0000000000.001.001.data
(PID.TID 0000.0001)  MDSREADFIELD: opening global file: labsea_Lev.ptmp
(PID.TID 0000.0001)  MDSREADFIELD: opening file: sbar.0000000000.001.001.data
(PID.TID 0000.0001)  MDSREADFIELD: opening global file: labsea_Lev.salt
(PID.TID 0000.0001)  MDSREADFIELD: opening file: psbar.0000000000.001.001.data
(PID.TID 0000.0001)  MDSREADFIELD: opening global file: labsea_TP_mean

  cost_ssh: offset_sum =   71.

(PID.TID 0000.0001)  MDSREADFIELD: opening file: psbar.0000000000.001.001.data
(PID.TID 0000.0001)  MDSREADFIELD: opening global file: labsea_TP_fields
(PID.TID 0000.0001)  MDSREADFIELD: opening global file: labsea_ERS_fields
(PID.TID 0000.0001)  MDSREADFIELD: opening file: tbar.0000000000.001.001.data
(PID.TID 0000.0001)  MDSREADFIELD: opening global file: labsea_SST_fields
  --> objf_temp(bi,bj)    =  913.322487
  --> objf_salt(bi,bj)    =  293.144573
  --> objf_temp0(bi,bj)   =  0.
  --> objf_salt0(bi,bj)   =  0.
  --> objf_sst(bi,bj)     =  201.662552
  --> objf_sss(bi,bj)     =  0.
  --> objf_h(bi,bj)       =  0.
  --> objf_hmean          =  0.0266992949
  --> objf_tauu(bi,bj)    =  0.
  --> objf_tauum(bi,bj)   =  0.
  --> objf_tauv(bi,bj)    =  0.
  --> objf_tauvm(bi,bj)   =  0.
  --> objf_hflux(bi,bj)   =  0.
  --> objf_hflux(bi,bj)   =  0.
  --> objf_hflux(bi,bj)   =  0.
  --> objf_sflux(bi,bj)   =  0.
  --> objf_sflux(bi,bj)   =  0.
  --> objf_sflux(bi,bj)   =  0.
  --> objf_atl(bi,bj)     =  0.
  --> objf_ctdt(bi,bj)    =  0.
  --> objf_ctds(bi,bj)    =  0.
  --> objf_xbt(bi,bj)     =  0.
  --> objf_argot(bi,bj)   =  0.
  --> objf_argos(bi,bj)   =  0.
  --> objf_drift(bi,bj)   =  0.
  --> objf_tdrift(bi,bj)  =  0.
  --> objf_sdrift(bi,bj)  =  0.
  --> objf_wdrift(bi,bj)  =  0.
  --> objf_scatx(bi,bj)   =  0.
  --> objf_scaty(bi,bj)   =  0.
  --> objf_scatxm(bi,bj)  =  0.
  --> objf_scatym(bi,bj)  =  0.
  --> objf_uwind(bi,bj)   =  0.
  --> objf_vwind(bi,bj)   =  0.
  --> objf_atemp(bi,bj)   =  9.E-08
  --> objf_aqh(bi,bj)     =  0.
  --> objf_obcsn(bi,bj)   =  0.
  --> objf_obcss(bi,bj)   =  0.
  --> objf_obcsw(bi,bj)   =  0.
  --> objf_obcse(bi,bj)   =  0.
  --> objf_hmean           =  0.0266992949
  --> fc               =  1408.15631
(PID.TID 0000.0001)  MDSREADFIELD: opening file: xx_atemp.0000000000.001.001.data
(PID.TID 0000.0001)  MDSREADFIELD: opening file: xx_atemp.0000000000.001.001.data
(PID.TID 0000.0001) 
(PID.TID 0000.0001)  cal_TimeStamp: iter =          0 time =  0.00000000E+00
(PID.TID 0000.0001)                 date =   19790101           0
(PID.TID 0000.0001) 
(PID.TID 0000.0001) %MON kefCori_max                  =   1.4171638136144E-04
(PID.TID 0000.0001) %MON kefCori_min                  =   1.0637108408252E-04
(PID.TID 0000.0001) %MON kefCori_mean                 =   1.2676338344768E-04
(PID.TID 0000.0001) %MON kefCori_sd                   =   1.1001401444773E-05
(PID.TID 0000.0001) %MON kefCoriG_max                 =   1.4112379284621E-04
(PID.TID 0000.0001) %MON kefCoriG_min                 =   1.0462373297123E-04
(PID.TID 0000.0001) %MON kefCoriG_mean                =   1.2556776212280E-04
(PID.TID 0000.0001) %MON kefCoriG_sd                  =   1.1352720951562E-05
(PID.TID 0000.0001) // CG2D normalisation factor =          0.1609493984093919507084164E-03
(PID.TID 0000.0001) 
(PID.TID 0000.0001)  MDSREADFIELD: opening global file: LevCli_temp.labsea
(PID.TID 0000.0001) // =======================================================
(PID.TID 0000.0001) // Field Initial Temperature at iteration          1
(PID.TID 0000.0001) // CMIN =          9.205863475799561E-01
(PID.TID 0000.0001) // CMAX =          1.333307647705078E+01
(PID.TID 0000.0001) // CINT =          4.597218566470676E-01
(PID.TID 0000.0001) // SYMBOLS (CMIN->CMAX): -abcdefghijklmnopqrstuvwxyz+
(PID.TID 0000.0001) //                  0.0: .
(PID.TID 0000.0001) // RANGE I (Lo:Hi:Step):(   1:  20:   1)
(PID.TID 0000.0001) // RANGE J (Lo:Hi:Step):(  16:   1:  -1)
(PID.TID 0000.0001) // RANGE K (Lo:Hi:Step):(   1:   1:   1)
(PID.TID 0000.0001) // =======================================================
(PID.TID 0000.0001) K =   1
(PID.TID 0000.0001)                I=10      I=20
(PID.TID 0000.0001) |--J--|123456789|123456789|
(PID.TID 0000.0001)     16 .----...............
(PID.TID 0000.0001)     15 aabaaaaaaaa.........
(PID.TID 0000.0001)     14 .ccccccbbbbc........
(PID.TID 0000.0001)     13 ....dddddddd........
(PID.TID 0000.0001)     12 ......dcdddddd......
(PID.TID 0000.0001)     11 ........cccdd.......
(PID.TID 0000.0001)     10 .......bbcdddd......
(PID.TID 0000.0001)      9 .......cdeeffff....j
(PID.TID 0000.0001)      8 .....ccdefgghhggh..k
(PID.TID 0000.0001)      7 ......d.fghiiiiiijkl
(PID.TID 0000.0001)      6 .........ghhijjjkklm
(PID.TID 0000.0001)      5 ..........hhhijklmnn
(PID.TID 0000.0001)      4 ............ghikmopq
(PID.TID 0000.0001)      3 ..........k.hhiknqsu
(PID.TID 0000.0001)      2 .......oonm..ijknqux
(PID.TID 0000.0001)      1 ........qponlkklosw+
(PID.TID 0000.0001) // =======================================================
(PID.TID 0000.0001) // END OF FIELD                                          =
(PID.TID 0000.0001) // =======================================================
(PID.TID 0000.0001) 
(PID.TID 0000.0001)  MDSREADFIELD: opening global file: LevCli_salt.labsea
(PID.TID 0000.0001) // =======================================================
(PID.TID 0000.0001) // Field Initial Salinity at iteration          1
(PID.TID 0000.0001) // CMIN =          3.012869834899902E+01
(PID.TID 0000.0001) // CMAX =          3.487366104125977E+01
(PID.TID 0000.0001) // CINT =          1.757393589726201E-01
(PID.TID 0000.0001) // SYMBOLS (CMIN->CMAX): -abcdefghijklmnopqrstuvwxyz+
(PID.TID 0000.0001) //                  0.0: .
(PID.TID 0000.0001) // RANGE I (Lo:Hi:Step):(   1:  20:   1)
(PID.TID 0000.0001) // RANGE J (Lo:Hi:Step):(  16:   1:  -1)
(PID.TID 0000.0001) // RANGE K (Lo:Hi:Step):(   1:   1:   1)
(PID.TID 0000.0001) // =======================================================
(PID.TID 0000.0001) K =   1
(PID.TID 0000.0001)                I=10      I=20
(PID.TID 0000.0001) |--J--|123456789|123456789|
(PID.TID 0000.0001)     16 .nnos...............
(PID.TID 0000.0001)     15 lnoppppppol.........
(PID.TID 0000.0001)     14 .nponmllllmn........
(PID.TID 0000.0001)     13 ....ljhijkmo........
(PID.TID 0000.0001)     12 ......ghjlmors......
(PID.TID 0000.0001)     11 ........jmnpr.......
(PID.TID 0000.0001)     10 .......jlnpqrq......
(PID.TID 0000.0001)      9 .......noqsttts....w
(PID.TID 0000.0001)      8 .....jlnpsuvwwutu..x
(PID.TID 0000.0001)      7 ......j.rruwxyxxwxxy
(PID.TID 0000.0001)      6 .........ppruxyyzzzz
(PID.TID 0000.0001)      5 ..........ijoswyzzzz
(PID.TID 0000.0001)      4 ............iotwyzzz
(PID.TID 0000.0001)      3 ..........g.imquwyzz
(PID.TID 0000.0001)      2 .......-bef..knqtvxz
(PID.TID 0000.0001)      1 ........-cegijlosvy+
(PID.TID 0000.0001) // =======================================================
(PID.TID 0000.0001) // END OF FIELD                                          =
(PID.TID 0000.0001) // =======================================================
(PID.TID 0000.0001) 
(PID.TID 0000.0001)  MDSREADFIELD: opening file: xx_theta.0000000000.001.001.data
(PID.TID 0000.0001)  MDSREADFIELD: opening file: xx_salt.0000000000.001.001.data
(PID.TID 0000.0001) // =======================================================
(PID.TID 0000.0001) // Model current state
(PID.TID 0000.0001) // =======================================================
(PID.TID 0000.0001) 
(PID.TID 0000.0001) // =======================================================
(PID.TID 0000.0001) // Begin MONITOR dynamic field statistics
(PID.TID 0000.0001) // =======================================================
(PID.TID 0000.0001) %MON time_tsnumber                =                     0
(PID.TID 0000.0001) %MON time_secondsf                =   0.0000000000000E+00
(PID.TID 0000.0001) %MON time_secondsi                =                     0
(PID.TID 0000.0001) %MON dynstat_eta_max              =   0.0000000000000E+00
(PID.TID 0000.0001) %MON dynstat_eta_min              =   0.0000000000000E+00
(PID.TID 0000.0001) %MON dynstat_eta_mean             =   0.0000000000000E+00
(PID.TID 0000.0001) %MON dynstat_eta_sd               =   0.0000000000000E+00
(PID.TID 0000.0001) %MON dynstat_eta_del2             =   0.0000000000000E+00
(PID.TID 0000.0001) %MON dynstat_uvel_max             =   0.0000000000000E+00
(PID.TID 0000.0001) %MON dynstat_uvel_min             =   0.0000000000000E+00
(PID.TID 0000.0001) %MON dynstat_uvel_mean            =   0.0000000000000E+00
(PID.TID 0000.0001) %MON dynstat_uvel_sd              =   0.0000000000000E+00
(PID.TID 0000.0001) %MON dynstat_uvel_del2            =   0.0000000000000E+00
(PID.TID 0000.0001) %MON dynstat_vvel_max             =   0.0000000000000E+00
(PID.TID 0000.0001) %MON dynstat_vvel_min             =   0.0000000000000E+00
(PID.TID 0000.0001) %MON dynstat_vvel_mean            =   0.0000000000000E+00
(PID.TID 0000.0001) %MON dynstat_vvel_sd              =   0.0000000000000E+00
(PID.TID 0000.0001) %MON dynstat_vvel_del2            =   0.0000000000000E+00
(PID.TID 0000.0001) %MON dynstat_wvel_max             =   0.0000000000000E+00
(PID.TID 0000.0001) %MON dynstat_wvel_min             =   0.0000000000000E+00
(PID.TID 0000.0001) %MON dynstat_wvel_mean            =   0.0000000000000E+00
(PID.TID 0000.0001) %MON dynstat_wvel_sd              =   0.0000000000000E+00
(PID.TID 0000.0001) %MON dynstat_wvel_del2            =   0.0000000000000E+00
(PID.TID 0000.0001) %MON dynstat_theta_max            =   1.3333076477051E+01
(PID.TID 0000.0001) %MON dynstat_theta_min            =  -1.4103618860245E+00
(PID.TID 0000.0001) %MON dynstat_theta_mean           =   3.1168426975828E+00
(PID.TID 0000.0001) %MON dynstat_theta_sd             =   1.4047681849177E+00
(PID.TID 0000.0001) %MON dynstat_theta_del2           =   9.7237468258508E-02
(PID.TID 0000.0001) %MON dynstat_salt_max             =   3.5450622558594E+01
(PID.TID 0000.0001) %MON dynstat_salt_min             =   3.0128698348999E+01
(PID.TID 0000.0001) %MON dynstat_salt_mean            =   3.4759355674691E+01
(PID.TID 0000.0001) %MON dynstat_salt_sd              =   4.4306214753982E-01
(PID.TID 0000.0001) %MON dynstat_salt_del2            =   3.8354629598638E-02
(PID.TID 0000.0001) %MON advcfl_uvel_max              =   0.0000000000000E+00
(PID.TID 0000.0001) %MON advcfl_vvel_max              =   0.0000000000000E+00
(PID.TID 0000.0001) %MON advcfl_wvel_max              =   0.0000000000000E+00
(PID.TID 0000.0001) %MON advcfl_W_hf_max              =   0.0000000000000E+00
(PID.TID 0000.0001) %MON ke_max                       =   0.0000000000000E+00
(PID.TID 0000.0001) %MON ke_mean                      =   0.0000000000000E+00
(PID.TID 0000.0001) %MON ke_volint                    =   0.0000000000000E+00
(PID.TID 0000.0001) %MON ke_volmean                   =   0.0000000000000E+00
(PID.TID 0000.0001) // =======================================================
(PID.TID 0000.0001) // End MONITOR dynamic field statistics
(PID.TID 0000.0001) // =======================================================
(PID.TID 0000.0001)  MDSREADFIELD: opening file: xx_atemp.0000000000.001.001.data
(PID.TID 0000.0001)  MDSREADFIELD: opening file: xx_atemp.0000000000.001.001.data
(PID.TID 0000.0001)  MDSREADFIELD: opening file: xx_aqh.0000000000.001.001.data
(PID.TID 0000.0001)  MDSREADFIELD: opening file: xx_aqh.0000000000.001.001.data
(PID.TID 0000.0001)  MDSREADFIELD: opening file: xx_uwind.0000000000.001.001.data
(PID.TID 0000.0001)  MDSREADFIELD: opening file: xx_uwind.0000000000.001.001.data
(PID.TID 0000.0001)  MDSREADFIELD: opening file: xx_vwind.0000000000.001.001.data
(PID.TID 0000.0001)  MDSREADFIELD: opening file: xx_vwind.0000000000.001.001.data
(PID.TID 0000.0001) 
(PID.TID 0000.0001)  exf_GetFFieldsRec: first, changed, fac:   T   F   0.50000000E+00
(PID.TID 0000.0001)  exf_GetFFieldsRec:      count0, count1:   1   2
(PID.TID 0000.0001) 
(PID.TID 0000.0001)  MDSREADFIELD: opening global file: u10m.labsea79
(PID.TID 0000.0001)  MDSREADFIELD: opening global file: u10m.labsea79
(PID.TID 0000.0001) 
(PID.TID 0000.0001)  exf_GetFFieldsRec: first, changed, fac:   T   F   0.50000000E+00
(PID.TID 0000.0001)  exf_GetFFieldsRec:      count0, count1:   1   2
(PID.TID 0000.0001) 
(PID.TID 0000.0001)  MDSREADFIELD: opening global file: v10m.labsea79
(PID.TID 0000.0001)  MDSREADFIELD: opening global file: v10m.labsea79
(PID.TID 0000.0001)  MDSREADFIELD: opening file: xx_uwind.0000000000.001.001.data
(PID.TID 0000.0001)  MDSREADFIELD: opening file: xx_uwind.0000000000.001.001.data
(PID.TID 0000.0001)  MDSREADFIELD: opening file: xx_vwind.0000000000.001.001.data
(PID.TID 0000.0001)  MDSREADFIELD: opening file: xx_vwind.0000000000.001.001.data
(PID.TID 0000.0001) 
(PID.TID 0000.0001)  exf_GetFFieldsRec: first, changed, fac:   T   F   0.50000000E+00
(PID.TID 0000.0001)  exf_GetFFieldsRec:      count0, count1:   1   2
(PID.TID 0000.0001) 
(PID.TID 0000.0001)  MDSREADFIELD: opening global file: tair.labsea1979
(PID.TID 0000.0001)  MDSREADFIELD: opening global file: tair.labsea1979
(PID.TID 0000.0001) 
(PID.TID 0000.0001)  exf_GetFFieldsRec: first, changed, fac:   T   F   0.50000000E+00
(PID.TID 0000.0001)  exf_GetFFieldsRec:      count0, count1:   1   2
(PID.TID 0000.0001) 
(PID.TID 0000.0001)  MDSREADFIELD: opening global file: qa.labsea1979
(PID.TID 0000.0001)  MDSREADFIELD: opening global file: qa.labsea1979
(PID.TID 0000.0001) 
(PID.TID 0000.0001)  exf_GetFFieldsRec: first, changed, fac:   T   F   0.50000000E+00
(PID.TID 0000.0001)  exf_GetFFieldsRec:      count0, count1:   1   2
(PID.TID 0000.0001) 
(PID.TID 0000.0001)  MDSREADFIELD: opening global file: prate.labsea1979
(PID.TID 0000.0001)  MDSREADFIELD: opening global file: prate.labsea1979
(PID.TID 0000.0001)  MDSREADFIELD: opening file: xx_atemp.0000000000.001.001.data
(PID.TID 0000.0001)  MDSREADFIELD: opening file: xx_atemp.0000000000.001.001.data
(PID.TID 0000.0001)  MDSREADFIELD: opening file: xx_aqh.0000000000.001.001.data
(PID.TID 0000.0001)  MDSREADFIELD: opening file: xx_aqh.0000000000.001.001.data
(PID.TID 0000.0001) 
(PID.TID 0000.0001)  exf_GetFFieldsRec: first, changed, fac:   T   F   0.50000000E+00
(PID.TID 0000.0001)  exf_GetFFieldsRec:      count0, count1:   1   2
(PID.TID 0000.0001) 
(PID.TID 0000.0001)  MDSREADFIELD: opening global file: fsh.labsea1979
(PID.TID 0000.0001)  MDSREADFIELD: opening global file: fsh.labsea1979
(PID.TID 0000.0001) 
(PID.TID 0000.0001)  exf_GetFFieldsRec: first, changed, fac:   T   F   0.50000000E+00
(PID.TID 0000.0001)  exf_GetFFieldsRec:      count0, count1:   1   2
(PID.TID 0000.0001) 
(PID.TID 0000.0001)  MDSREADFIELD: opening global file: flo.labsea1979
(PID.TID 0000.0001)  MDSREADFIELD: opening global file: flo.labsea1979
 pathei: in check_exp: iter/time/rec/yprefix  0  0. 1 kf_
 pathei: in check_exp: date   0
 pathei: in check_exp: theta  -1.96
 pathei: in check_exp: salt    32.5598145
 pathei: in check_exp: uvel    0.
 pathei: in check_exp: vvel    0.
 pathei: in check_exp: qnet    0.
 pathei: in check_exp: empmr  -0.000153695737
 pathei: in check_exp: fu      0.0119642461
 pathei: in check_exp: fv     -0.0250166478
 cg2d: Sum(rhs),rhsMax =   1.95590071916385E-16  1.00807802167630E+00
(PID.TID 0000.0001)                    cg2d_init_res =    1.61521300655486E+00
(PID.TID 0000.0001)                       cg2d_iters =    47
(PID.TID 0000.0001)                         cg2d_res =    5.70138941994743E-14
(PID.TID 0000.0001) 
(PID.TID 0000.0001)  cal_TimeStamp: iter =          1 time =  0.36000000E+04
(PID.TID 0000.0001)                 date =   19790101       10000
(PID.TID 0000.0001) 
(PID.TID 0000.0001) 
(PID.TID 0000.0001)  exf_GetFFieldsRec: first, changed, fac:   F   F   0.49863388E+00
(PID.TID 0000.0001)  exf_GetFFieldsRec:      count0, count1:   1   2
(PID.TID 0000.0001) 
(PID.TID 0000.0001) 
(PID.TID 0000.0001)  exf_GetFFieldsRec: first, changed, fac:   F   F   0.49863388E+00
(PID.TID 0000.0001)  exf_GetFFieldsRec:      count0, count1:   1   2
(PID.TID 0000.0001) 
(PID.TID 0000.0001)  MDSREADFIELD: opening file: xx_uwind.0000000000.001.001.data
(PID.TID 0000.0001)  MDSREADFIELD: opening file: xx_uwind.0000000000.001.001.data
(PID.TID 0000.0001)  MDSREADFIELD: opening file: xx_vwind.0000000000.001.001.data
(PID.TID 0000.0001)  MDSREADFIELD: opening file: xx_vwind.0000000000.001.001.data
(PID.TID 0000.0001) 
(PID.TID 0000.0001)  exf_GetFFieldsRec: first, changed, fac:   F   F   0.49863388E+00
(PID.TID 0000.0001)  exf_GetFFieldsRec:      count0, count1:   1   2
(PID.TID 0000.0001) 
(PID.TID 0000.0001) 
(PID.TID 0000.0001)  exf_GetFFieldsRec: first, changed, fac:   F   F   0.49863388E+00
(PID.TID 0000.0001)  exf_GetFFieldsRec:      count0, count1:   1   2
(PID.TID 0000.0001) 
(PID.TID 0000.0001) 
(PID.TID 0000.0001)  exf_GetFFieldsRec: first, changed, fac:   F   F   0.49863388E+00
(PID.TID 0000.0001)  exf_GetFFieldsRec:      count0, count1:   1   2
(PID.TID 0000.0001) 
(PID.TID 0000.0001)  MDSREADFIELD: opening file: xx_atemp.0000000000.001.001.data
(PID.TID 0000.0001)  MDSREADFIELD: opening file: xx_atemp.0000000000.001.001.data
(PID.TID 0000.0001)  MDSREADFIELD: opening file: xx_aqh.0000000000.001.001.data
(PID.TID 0000.0001)  MDSREADFIELD: opening file: xx_aqh.0000000000.001.001.data
(PID.TID 0000.0001) 
(PID.TID 0000.0001)  exf_GetFFieldsRec: first, changed, fac:   F   F   0.49863388E+00
(PID.TID 0000.0001)  exf_GetFFieldsRec:      count0, count1:   1   2
(PID.TID 0000.0001) 
(PID.TID 0000.0001) 
(PID.TID 0000.0001)  exf_GetFFieldsRec: first, changed, fac:   F   F   0.49863388E+00
(PID.TID 0000.0001)  exf_GetFFieldsRec:      count0, count1:   1   2
(PID.TID 0000.0001) 
 cg2d: Sum(rhs),rhsMax =   7.37474317724640E-16  1.23585471329616E+00
(PID.TID 0000.0001)                    cg2d_init_res =    3.48544561450945E-01
(PID.TID 0000.0001)                       cg2d_iters =    45
(PID.TID 0000.0001)                         cg2d_res =    6.49477568692734E-14
(PID.TID 0000.0001) 
(PID.TID 0000.0001)  cal_TimeStamp: iter =          2 time =  0.72000000E+04
(PID.TID 0000.0001)                 date =   19790101       20000
(PID.TID 0000.0001) 
(PID.TID 0000.0001) 
(PID.TID 0000.0001)  exf_GetFFieldsRec: first, changed, fac:   F   F   0.49726776E+00
(PID.TID 0000.0001)  exf_GetFFieldsRec:      count0, count1:   1   2
(PID.TID 0000.0001) 
(PID.TID 0000.0001) 
(PID.TID 0000.0001)  exf_GetFFieldsRec: first, changed, fac:   F   F   0.49726776E+00
(PID.TID 0000.0001)  exf_GetFFieldsRec:      count0, count1:   1   2
(PID.TID 0000.0001) 
(PID.TID 0000.0001)  MDSREADFIELD: opening file: xx_uwind.0000000000.001.001.data
(PID.TID 0000.0001)  MDSREADFIELD: opening file: xx_uwind.0000000000.001.001.data
(PID.TID 0000.0001)  MDSREADFIELD: opening file: xx_vwind.0000000000.001.001.data
(PID.TID 0000.0001)  MDSREADFIELD: opening file: xx_vwind.0000000000.001.001.data
(PID.TID 0000.0001) 
(PID.TID 0000.0001)  exf_GetFFieldsRec: first, changed, fac:   F   F   0.49726776E+00
(PID.TID 0000.0001)  exf_GetFFieldsRec:      count0, count1:   1   2
(PID.TID 0000.0001) 
(PID.TID 0000.0001) 
(PID.TID 0000.0001)  exf_GetFFieldsRec: first, changed, fac:   F   F   0.49726776E+00
(PID.TID 0000.0001)  exf_GetFFieldsRec:      count0, count1:   1   2
(PID.TID 0000.0001) 
(PID.TID 0000.0001) 
(PID.TID 0000.0001)  exf_GetFFieldsRec: first, changed, fac:   F   F   0.49726776E+00
(PID.TID 0000.0001)  exf_GetFFieldsRec:      count0, count1:   1   2
(PID.TID 0000.0001) 
(PID.TID 0000.0001)  MDSREADFIELD: opening file: xx_atemp.0000000000.001.001.data
(PID.TID 0000.0001)  MDSREADFIELD: opening file: xx_atemp.0000000000.001.001.data
(PID.TID 0000.0001)  MDSREADFIELD: opening file: xx_aqh.0000000000.001.001.data
(PID.TID 0000.0001)  MDSREADFIELD: opening file: xx_aqh.0000000000.001.001.data
(PID.TID 0000.0001) 
(PID.TID 0000.0001)  exf_GetFFieldsRec: first, changed, fac:   F   F   0.49726776E+00
(PID.TID 0000.0001)  exf_GetFFieldsRec:      count0, count1:   1   2
(PID.TID 0000.0001) 
(PID.TID 0000.0001) 
(PID.TID 0000.0001)  exf_GetFFieldsRec: first, changed, fac:   F   F   0.49726776E+00
(PID.TID 0000.0001)  exf_GetFFieldsRec:      count0, count1:   1   2
(PID.TID 0000.0001) 
 cg2d: Sum(rhs),rhsMax =   6.20553955443803E-15  1.25438452343302E+00
(PID.TID 0000.0001)                    cg2d_init_res =    2.36078257971889E-01
(PID.TID 0000.0001)                       cg2d_iters =    45
(PID.TID 0000.0001)                         cg2d_res =    6.62546240702124E-14
(PID.TID 0000.0001) 
(PID.TID 0000.0001)  cal_TimeStamp: iter =          3 time =  0.10800000E+05
(PID.TID 0000.0001)                 date =   19790101       30000
(PID.TID 0000.0001) 
(PID.TID 0000.0001) 
(PID.TID 0000.0001)  exf_GetFFieldsRec: first, changed, fac:   F   F   0.49590164E+00
(PID.TID 0000.0001)  exf_GetFFieldsRec:      count0, count1:   1   2
(PID.TID 0000.0001) 
(PID.TID 0000.0001) 
(PID.TID 0000.0001)  exf_GetFFieldsRec: first, changed, fac:   F   F   0.49590164E+00
(PID.TID 0000.0001)  exf_GetFFieldsRec:      count0, count1:   1   2
(PID.TID 0000.0001) 
(PID.TID 0000.0001)  MDSREADFIELD: opening file: xx_uwind.0000000000.001.001.data
(PID.TID 0000.0001)  MDSREADFIELD: opening file: xx_uwind.0000000000.001.001.data
(PID.TID 0000.0001)  MDSREADFIELD: opening file: xx_vwind.0000000000.001.001.data
(PID.TID 0000.0001)  MDSREADFIELD: opening file: xx_vwind.0000000000.001.001.data
(PID.TID 0000.0001) 
(PID.TID 0000.0001)  exf_GetFFieldsRec: first, changed, fac:   F   F   0.49590164E+00
(PID.TID 0000.0001)  exf_GetFFieldsRec:      count0, count1:   1   2
(PID.TID 0000.0001) 
(PID.TID 0000.0001) 
(PID.TID 0000.0001)  exf_GetFFieldsRec: first, changed, fac:   F   F   0.49590164E+00
(PID.TID 0000.0001)  exf_GetFFieldsRec:      count0, count1:   1   2
(PID.TID 0000.0001) 
(PID.TID 0000.0001) 
(PID.TID 0000.0001)  exf_GetFFieldsRec: first, changed, fac:   F   F   0.49590164E+00
(PID.TID 0000.0001)  exf_GetFFieldsRec:      count0, count1:   1   2
(PID.TID 0000.0001) 
(PID.TID 0000.0001)  MDSREADFIELD: opening file: xx_atemp.0000000000.001.001.data
(PID.TID 0000.0001)  MDSREADFIELD: opening file: xx_atemp.0000000000.001.001.data
(PID.TID 0000.0001)  MDSREADFIELD: opening file: xx_aqh.0000000000.001.001.data
(PID.TID 0000.0001)  MDSREADFIELD: opening file: xx_aqh.0000000000.001.001.data
(PID.TID 0000.0001) 
(PID.TID 0000.0001)  exf_GetFFieldsRec: first, changed, fac:   F   F   0.49590164E+00
(PID.TID 0000.0001)  exf_GetFFieldsRec:      count0, count1:   1   2
(PID.TID 0000.0001) 
(PID.TID 0000.0001) 
(PID.TID 0000.0001)  exf_GetFFieldsRec: first, changed, fac:   F   F   0.49590164E+00
(PID.TID 0000.0001)  exf_GetFFieldsRec:      count0, count1:   1   2
(PID.TID 0000.0001) 
 cg2d: Sum(rhs),rhsMax =   3.20620266447413E-15  1.25494322187447E+00
(PID.TID 0000.0001)                    cg2d_init_res =    1.82553144014713E-01
(PID.TID 0000.0001)                       cg2d_iters =    45
(PID.TID 0000.0001)                         cg2d_res =    5.12415163303431E-14
(PID.TID 0000.0001) 
(PID.TID 0000.0001)  cal_TimeStamp: iter =          4 time =  0.14400000E+05
(PID.TID 0000.0001)                 date =   19790101       40000
(PID.TID 0000.0001) 
(PID.TID 0000.0001)  MDSREADFIELD: opening file: tbar.0000000000.001.001.data
(PID.TID 0000.0001)  MDSREADFIELD: opening global file: labsea_SST_fields
(PID.TID 0000.0001)  MDSREADFIELD: opening file: tbar.0000000000.001.001.data
(PID.TID 0000.0001)  MDSREADFIELD: opening global file: labsea_Lev.ptmp
(PID.TID 0000.0001)  MDSREADFIELD: opening file: sbar.0000000000.001.001.data
(PID.TID 0000.0001)  MDSREADFIELD: opening global file: labsea_Lev.salt
(PID.TID 0000.0001)  MDSREADFIELD: opening file: psbar.0000000000.001.001.data
(PID.TID 0000.0001)  MDSREADFIELD: opening global file: labsea_TP_mean

  cost_ssh: offset_sum =   71.

(PID.TID 0000.0001)  MDSREADFIELD: opening file: psbar.0000000000.001.001.data
(PID.TID 0000.0001)  MDSREADFIELD: opening global file: labsea_TP_fields
(PID.TID 0000.0001)  MDSREADFIELD: opening global file: labsea_ERS_fields
(PID.TID 0000.0001)  MDSREADFIELD: opening file: tbar.0000000000.001.001.data
(PID.TID 0000.0001)  MDSREADFIELD: opening global file: labsea_SST_fields
  --> objf_temp(bi,bj)    =  913.322487
  --> objf_salt(bi,bj)    =  293.144573
  --> objf_temp0(bi,bj)   =  0.
  --> objf_salt0(bi,bj)   =  0.
  --> objf_sst(bi,bj)     =  201.662552
  --> objf_sss(bi,bj)     =  0.
  --> objf_h(bi,bj)       =  0.
  --> objf_hmean          =  0.0266992949
  --> objf_tauu(bi,bj)    =  0.
  --> objf_tauum(bi,bj)   =  0.
  --> objf_tauv(bi,bj)    =  0.
  --> objf_tauvm(bi,bj)   =  0.
  --> objf_hflux(bi,bj)   =  0.
  --> objf_hflux(bi,bj)   =  0.
  --> objf_hflux(bi,bj)   =  0.
  --> objf_sflux(bi,bj)   =  0.
  --> objf_sflux(bi,bj)   =  0.
  --> objf_sflux(bi,bj)   =  0.
  --> objf_atl(bi,bj)     =  0.
  --> objf_ctdt(bi,bj)    =  0.
  --> objf_ctds(bi,bj)    =  0.
  --> objf_xbt(bi,bj)     =  0.
  --> objf_argot(bi,bj)   =  0.
  --> objf_argos(bi,bj)   =  0.
  --> objf_drift(bi,bj)   =  0.
  --> objf_tdrift(bi,bj)  =  0.
  --> objf_sdrift(bi,bj)  =  0.
  --> objf_wdrift(bi,bj)  =  0.
  --> objf_scatx(bi,bj)   =  0.
  --> objf_scaty(bi,bj)   =  0.
  --> objf_scatxm(bi,bj)  =  0.
  --> objf_scatym(bi,bj)  =  0.
  --> objf_uwind(bi,bj)   =  0.
  --> objf_vwind(bi,bj)   =  0.
  --> objf_atemp(bi,bj)   =  9.E-08
  --> objf_aqh(bi,bj)     =  0.
  --> objf_obcsn(bi,bj)   =  0.
  --> objf_obcss(bi,bj)   =  0.
  --> objf_obcsw(bi,bj)   =  0.
  --> objf_obcse(bi,bj)   =  0.
  --> objf_hmean           =  0.0266992949
  --> fc               =  1408.15631
(PID.TID 0000.0001)  MDSREADFIELD: opening file: xx_atemp.0000000000.001.001.data
 ph-grd 3 -------------------------------
 ph-grd 3     0    1    9    1    1   0.140815631E+04 0.140815631E+04 0.140815631E+04
 ph-grd 3     0    1    1    1    0   0.000000000E+00 0.000000000E+00 0.000000000E+00
(PID.TID 0000.0001)  MDSREADFIELD: opening file: adxx_atemp.0000000000.001.001.data
(PID.TID 0000.0001)  MDSREADFIELD: opening file: xx_atemp.0000000000.001.001.data
(PID.TID 0000.0001) 
(PID.TID 0000.0001)  cal_TimeStamp: iter =          0 time =  0.00000000E+00
(PID.TID 0000.0001)                 date =   19790101           0
(PID.TID 0000.0001) 
(PID.TID 0000.0001) %MON kefCori_max                  =   1.4171638136144E-04
(PID.TID 0000.0001) %MON kefCori_min                  =   1.0637108408252E-04
(PID.TID 0000.0001) %MON kefCori_mean                 =   1.2676338344768E-04
(PID.TID 0000.0001) %MON kefCori_sd                   =   1.1001401444773E-05
(PID.TID 0000.0001) %MON kefCoriG_max                 =   1.4112379284621E-04
(PID.TID 0000.0001) %MON kefCoriG_min                 =   1.0462373297123E-04
(PID.TID 0000.0001) %MON kefCoriG_mean                =   1.2556776212280E-04
(PID.TID 0000.0001) %MON kefCoriG_sd                  =   1.1352720951562E-05
(PID.TID 0000.0001) // CG2D normalisation factor =          0.1609493984093919507084164E-03
(PID.TID 0000.0001) 
(PID.TID 0000.0001)  MDSREADFIELD: opening global file: LevCli_temp.labsea
(PID.TID 0000.0001) // =======================================================
(PID.TID 0000.0001) // Field Initial Temperature at iteration          1
(PID.TID 0000.0001) // CMIN =          9.205863475799561E-01
(PID.TID 0000.0001) // CMAX =          1.333307647705078E+01
(PID.TID 0000.0001) // CINT =          4.597218566470676E-01
(PID.TID 0000.0001) // SYMBOLS (CMIN->CMAX): -abcdefghijklmnopqrstuvwxyz+
(PID.TID 0000.0001) //                  0.0: .
(PID.TID 0000.0001) // RANGE I (Lo:Hi:Step):(   1:  20:   1)
(PID.TID 0000.0001) // RANGE J (Lo:Hi:Step):(  16:   1:  -1)
(PID.TID 0000.0001) // RANGE K (Lo:Hi:Step):(   1:   1:   1)
(PID.TID 0000.0001) // =======================================================
(PID.TID 0000.0001) K =   1
(PID.TID 0000.0001)                I=10      I=20
(PID.TID 0000.0001) |--J--|123456789|123456789|
(PID.TID 0000.0001)     16 .----...............
(PID.TID 0000.0001)     15 aabaaaaaaaa.........
(PID.TID 0000.0001)     14 .ccccccbbbbc........
(PID.TID 0000.0001)     13 ....dddddddd........
(PID.TID 0000.0001)     12 ......dcdddddd......
(PID.TID 0000.0001)     11 ........cccdd.......
(PID.TID 0000.0001)     10 .......bbcdddd......
(PID.TID 0000.0001)      9 .......cdeeffff....j
(PID.TID 0000.0001)      8 .....ccdefgghhggh..k
(PID.TID 0000.0001)      7 ......d.fghiiiiiijkl
(PID.TID 0000.0001)      6 .........ghhijjjkklm
(PID.TID 0000.0001)      5 ..........hhhijklmnn
(PID.TID 0000.0001)      4 ............ghikmopq
(PID.TID 0000.0001)      3 ..........k.hhiknqsu
(PID.TID 0000.0001)      2 .......oonm..ijknqux
(PID.TID 0000.0001)      1 ........qponlkklosw+
(PID.TID 0000.0001) // =======================================================
(PID.TID 0000.0001) // END OF FIELD                                          =
(PID.TID 0000.0001) // =======================================================
(PID.TID 0000.0001) 
(PID.TID 0000.0001)  MDSREADFIELD: opening global file: LevCli_salt.labsea
(PID.TID 0000.0001) // =======================================================
(PID.TID 0000.0001) // Field Initial Salinity at iteration          1
(PID.TID 0000.0001) // CMIN =          3.012869834899902E+01
(PID.TID 0000.0001) // CMAX =          3.487366104125977E+01
(PID.TID 0000.0001) // CINT =          1.757393589726201E-01
(PID.TID 0000.0001) // SYMBOLS (CMIN->CMAX): -abcdefghijklmnopqrstuvwxyz+
(PID.TID 0000.0001) //                  0.0: .
(PID.TID 0000.0001) // RANGE I (Lo:Hi:Step):(   1:  20:   1)
(PID.TID 0000.0001) // RANGE J (Lo:Hi:Step):(  16:   1:  -1)
(PID.TID 0000.0001) // RANGE K (Lo:Hi:Step):(   1:   1:   1)
(PID.TID 0000.0001) // =======================================================
(PID.TID 0000.0001) K =   1
(PID.TID 0000.0001)                I=10      I=20
(PID.TID 0000.0001) |--J--|123456789|123456789|
(PID.TID 0000.0001)     16 .nnos...............
(PID.TID 0000.0001)     15 lnoppppppol.........
(PID.TID 0000.0001)     14 .nponmllllmn........
(PID.TID 0000.0001)     13 ....ljhijkmo........
(PID.TID 0000.0001)     12 ......ghjlmors......
(PID.TID 0000.0001)     11 ........jmnpr.......
(PID.TID 0000.0001)     10 .......jlnpqrq......
(PID.TID 0000.0001)      9 .......noqsttts....w
(PID.TID 0000.0001)      8 .....jlnpsuvwwutu..x
(PID.TID 0000.0001)      7 ......j.rruwxyxxwxxy
(PID.TID 0000.0001)      6 .........ppruxyyzzzz
(PID.TID 0000.0001)      5 ..........ijoswyzzzz
(PID.TID 0000.0001)      4 ............iotwyzzz
(PID.TID 0000.0001)      3 ..........g.imquwyzz
(PID.TID 0000.0001)      2 .......-bef..knqtvxz
(PID.TID 0000.0001)      1 ........-cegijlosvy+
(PID.TID 0000.0001) // =======================================================
(PID.TID 0000.0001) // END OF FIELD                                          =
(PID.TID 0000.0001) // =======================================================
(PID.TID 0000.0001) 
(PID.TID 0000.0001)  MDSREADFIELD: opening file: xx_theta.0000000000.001.001.data
(PID.TID 0000.0001)  MDSREADFIELD: opening file: xx_salt.0000000000.001.001.data
(PID.TID 0000.0001) // =======================================================
(PID.TID 0000.0001) // Model current state
(PID.TID 0000.0001) // =======================================================
(PID.TID 0000.0001) 
(PID.TID 0000.0001) // =======================================================
(PID.TID 0000.0001) // Begin MONITOR dynamic field statistics
(PID.TID 0000.0001) // =======================================================
(PID.TID 0000.0001) %MON time_tsnumber                =                     0
(PID.TID 0000.0001) %MON time_secondsf                =   0.0000000000000E+00
(PID.TID 0000.0001) %MON time_secondsi                =                     0
(PID.TID 0000.0001) %MON dynstat_eta_max              =   0.0000000000000E+00
(PID.TID 0000.0001) %MON dynstat_eta_min              =   0.0000000000000E+00
(PID.TID 0000.0001) %MON dynstat_eta_mean             =   0.0000000000000E+00
(PID.TID 0000.0001) %MON dynstat_eta_sd               =   0.0000000000000E+00
(PID.TID 0000.0001) %MON dynstat_eta_del2             =   0.0000000000000E+00
(PID.TID 0000.0001) %MON dynstat_uvel_max             =   0.0000000000000E+00
(PID.TID 0000.0001) %MON dynstat_uvel_min             =   0.0000000000000E+00
(PID.TID 0000.0001) %MON dynstat_uvel_mean            =   0.0000000000000E+00
(PID.TID 0000.0001) %MON dynstat_uvel_sd              =   0.0000000000000E+00
(PID.TID 0000.0001) %MON dynstat_uvel_del2            =   0.0000000000000E+00
(PID.TID 0000.0001) %MON dynstat_vvel_max             =   0.0000000000000E+00
(PID.TID 0000.0001) %MON dynstat_vvel_min             =   0.0000000000000E+00
(PID.TID 0000.0001) %MON dynstat_vvel_mean            =   0.0000000000000E+00
(PID.TID 0000.0001) %MON dynstat_vvel_sd              =   0.0000000000000E+00
(PID.TID 0000.0001) %MON dynstat_vvel_del2            =   0.0000000000000E+00
(PID.TID 0000.0001) %MON dynstat_wvel_max             =   0.0000000000000E+00
(PID.TID 0000.0001) %MON dynstat_wvel_min             =   0.0000000000000E+00
(PID.TID 0000.0001) %MON dynstat_wvel_mean            =   0.0000000000000E+00
(PID.TID 0000.0001) %MON dynstat_wvel_sd              =   0.0000000000000E+00
(PID.TID 0000.0001) %MON dynstat_wvel_del2            =   0.0000000000000E+00
(PID.TID 0000.0001) %MON dynstat_theta_max            =   1.3333076477051E+01
(PID.TID 0000.0001) %MON dynstat_theta_min            =  -1.4103618860245E+00
(PID.TID 0000.0001) %MON dynstat_theta_mean           =   3.1168426975828E+00
(PID.TID 0000.0001) %MON dynstat_theta_sd             =   1.4047681849177E+00
(PID.TID 0000.0001) %MON dynstat_theta_del2           =   9.7237468258508E-02
(PID.TID 0000.0001) %MON dynstat_salt_max             =   3.5450622558594E+01
(PID.TID 0000.0001) %MON dynstat_salt_min             =   3.0128698348999E+01
(PID.TID 0000.0001) %MON dynstat_salt_mean            =   3.4759355674691E+01
(PID.TID 0000.0001) %MON dynstat_salt_sd              =   4.4306214753982E-01
(PID.TID 0000.0001) %MON dynstat_salt_del2            =   3.8354629598638E-02
(PID.TID 0000.0001) %MON advcfl_uvel_max              =   0.0000000000000E+00
(PID.TID 0000.0001) %MON advcfl_vvel_max              =   0.0000000000000E+00
(PID.TID 0000.0001) %MON advcfl_wvel_max              =   0.0000000000000E+00
(PID.TID 0000.0001) %MON advcfl_W_hf_max              =   0.0000000000000E+00
(PID.TID 0000.0001) %MON ke_max                       =   0.0000000000000E+00
(PID.TID 0000.0001) %MON ke_mean                      =   0.0000000000000E+00
(PID.TID 0000.0001) %MON ke_volint                    =   0.0000000000000E+00
(PID.TID 0000.0001) %MON ke_volmean                   =   0.0000000000000E+00
(PID.TID 0000.0001) // =======================================================
(PID.TID 0000.0001) // End MONITOR dynamic field statistics
(PID.TID 0000.0001) // =======================================================
(PID.TID 0000.0001)  MDSREADFIELD: opening file: xx_atemp.0000000000.001.001.data
(PID.TID 0000.0001)  MDSREADFIELD: opening file: xx_atemp.0000000000.001.001.data
(PID.TID 0000.0001)  MDSREADFIELD: opening file: xx_aqh.0000000000.001.001.data
(PID.TID 0000.0001)  MDSREADFIELD: opening file: xx_aqh.0000000000.001.001.data
(PID.TID 0000.0001)  MDSREADFIELD: opening file: xx_uwind.0000000000.001.001.data
(PID.TID 0000.0001)  MDSREADFIELD: opening file: xx_uwind.0000000000.001.001.data
(PID.TID 0000.0001)  MDSREADFIELD: opening file: xx_vwind.0000000000.001.001.data
(PID.TID 0000.0001)  MDSREADFIELD: opening file: xx_vwind.0000000000.001.001.data
(PID.TID 0000.0001) 
(PID.TID 0000.0001)  exf_GetFFieldsRec: first, changed, fac:   T   F   0.50000000E+00
(PID.TID 0000.0001)  exf_GetFFieldsRec:      count0, count1:   1   2
(PID.TID 0000.0001) 
(PID.TID 0000.0001)  MDSREADFIELD: opening global file: u10m.labsea79
(PID.TID 0000.0001)  MDSREADFIELD: opening global file: u10m.labsea79
(PID.TID 0000.0001) 
(PID.TID 0000.0001)  exf_GetFFieldsRec: first, changed, fac:   T   F   0.50000000E+00
(PID.TID 0000.0001)  exf_GetFFieldsRec:      count0, count1:   1   2
(PID.TID 0000.0001) 
(PID.TID 0000.0001)  MDSREADFIELD: opening global file: v10m.labsea79
(PID.TID 0000.0001)  MDSREADFIELD: opening global file: v10m.labsea79
(PID.TID 0000.0001)  MDSREADFIELD: opening file: xx_uwind.0000000000.001.001.data
(PID.TID 0000.0001)  MDSREADFIELD: opening file: xx_uwind.0000000000.001.001.data
(PID.TID 0000.0001)  MDSREADFIELD: opening file: xx_vwind.0000000000.001.001.data
(PID.TID 0000.0001)  MDSREADFIELD: opening file: xx_vwind.0000000000.001.001.data
(PID.TID 0000.0001) 
(PID.TID 0000.0001)  exf_GetFFieldsRec: first, changed, fac:   T   F   0.50000000E+00
(PID.TID 0000.0001)  exf_GetFFieldsRec:      count0, count1:   1   2
(PID.TID 0000.0001) 
(PID.TID 0000.0001)  MDSREADFIELD: opening global file: tair.labsea1979
(PID.TID 0000.0001)  MDSREADFIELD: opening global file: tair.labsea1979
(PID.TID 0000.0001) 
(PID.TID 0000.0001)  exf_GetFFieldsRec: first, changed, fac:   T   F   0.50000000E+00
(PID.TID 0000.0001)  exf_GetFFieldsRec:      count0, count1:   1   2
(PID.TID 0000.0001) 
(PID.TID 0000.0001)  MDSREADFIELD: opening global file: qa.labsea1979
(PID.TID 0000.0001)  MDSREADFIELD: opening global file: qa.labsea1979
(PID.TID 0000.0001) 
(PID.TID 0000.0001)  exf_GetFFieldsRec: first, changed, fac:   T   F   0.50000000E+00
(PID.TID 0000.0001)  exf_GetFFieldsRec:      count0, count1:   1   2
(PID.TID 0000.0001) 
(PID.TID 0000.0001)  MDSREADFIELD: opening global file: prate.labsea1979
(PID.TID 0000.0001)  MDSREADFIELD: opening global file: prate.labsea1979
(PID.TID 0000.0001)  MDSREADFIELD: opening file: xx_atemp.0000000000.001.001.data
(PID.TID 0000.0001)  MDSREADFIELD: opening file: xx_atemp.0000000000.001.001.data
(PID.TID 0000.0001)  MDSREADFIELD: opening file: xx_aqh.0000000000.001.001.data
(PID.TID 0000.0001)  MDSREADFIELD: opening file: xx_aqh.0000000000.001.001.data
(PID.TID 0000.0001) 
(PID.TID 0000.0001)  exf_GetFFieldsRec: first, changed, fac:   T   F   0.50000000E+00
(PID.TID 0000.0001)  exf_GetFFieldsRec:      count0, count1:   1   2
(PID.TID 0000.0001) 
(PID.TID 0000.0001)  MDSREADFIELD: opening global file: fsh.labsea1979
(PID.TID 0000.0001)  MDSREADFIELD: opening global file: fsh.labsea1979
(PID.TID 0000.0001) 
(PID.TID 0000.0001)  exf_GetFFieldsRec: first, changed, fac:   T   F   0.50000000E+00
(PID.TID 0000.0001)  exf_GetFFieldsRec:      count0, count1:   1   2
(PID.TID 0000.0001) 
(PID.TID 0000.0001)  MDSREADFIELD: opening global file: flo.labsea1979
(PID.TID 0000.0001)  MDSREADFIELD: opening global file: flo.labsea1979
 pathei: in check_exp: iter/time/rec/yprefix  0  0. 1 kf_
 pathei: in check_exp: date   0
 pathei: in check_exp: theta  -1.96
 pathei: in check_exp: salt    32.5598145
 pathei: in check_exp: uvel    0.
 pathei: in check_exp: vvel    0.
 pathei: in check_exp: qnet    0.
 pathei: in check_exp: empmr  -0.000153695737
 pathei: in check_exp: fu      0.0119642461
 pathei: in check_exp: fv     -0.0250166478
 cg2d: Sum(rhs),rhsMax =   1.95590071916385E-16  1.00807802167630E+00
(PID.TID 0000.0001)                    cg2d_init_res =    1.61521300655486E+00
(PID.TID 0000.0001)                       cg2d_iters =    47
(PID.TID 0000.0001)                         cg2d_res =    5.70138941994743E-14
(PID.TID 0000.0001) 
(PID.TID 0000.0001)  cal_TimeStamp: iter =          1 time =  0.36000000E+04
(PID.TID 0000.0001)                 date =   19790101       10000
(PID.TID 0000.0001) 
(PID.TID 0000.0001) 
(PID.TID 0000.0001)  exf_GetFFieldsRec: first, changed, fac:   F   F   0.49863388E+00
(PID.TID 0000.0001)  exf_GetFFieldsRec:      count0, count1:   1   2
(PID.TID 0000.0001) 
(PID.TID 0000.0001) 
(PID.TID 0000.0001)  exf_GetFFieldsRec: first, changed, fac:   F   F   0.49863388E+00
(PID.TID 0000.0001)  exf_GetFFieldsRec:      count0, count1:   1   2
(PID.TID 0000.0001) 
(PID.TID 0000.0001)  MDSREADFIELD: opening file: xx_uwind.0000000000.001.001.data
(PID.TID 0000.0001)  MDSREADFIELD: opening file: xx_uwind.0000000000.001.001.data
(PID.TID 0000.0001)  MDSREADFIELD: opening file: xx_vwind.0000000000.001.001.data
(PID.TID 0000.0001)  MDSREADFIELD: opening file: xx_vwind.0000000000.001.001.data
(PID.TID 0000.0001) 
(PID.TID 0000.0001)  exf_GetFFieldsRec: first, changed, fac:   F   F   0.49863388E+00
(PID.TID 0000.0001)  exf_GetFFieldsRec:      count0, count1:   1   2
(PID.TID 0000.0001) 
(PID.TID 0000.0001) 
(PID.TID 0000.0001)  exf_GetFFieldsRec: first, changed, fac:   F   F   0.49863388E+00
(PID.TID 0000.0001)  exf_GetFFieldsRec:      count0, count1:   1   2
(PID.TID 0000.0001) 
(PID.TID 0000.0001) 
(PID.TID 0000.0001)  exf_GetFFieldsRec: first, changed, fac:   F   F   0.49863388E+00
(PID.TID 0000.0001)  exf_GetFFieldsRec:      count0, count1:   1   2
(PID.TID 0000.0001) 
(PID.TID 0000.0001)  MDSREADFIELD: opening file: xx_atemp.0000000000.001.001.data
(PID.TID 0000.0001)  MDSREADFIELD: opening file: xx_atemp.0000000000.001.001.data
(PID.TID 0000.0001)  MDSREADFIELD: opening file: xx_aqh.0000000000.001.001.data
(PID.TID 0000.0001)  MDSREADFIELD: opening file: xx_aqh.0000000000.001.001.data
(PID.TID 0000.0001) 
(PID.TID 0000.0001)  exf_GetFFieldsRec: first, changed, fac:   F   F   0.49863388E+00
(PID.TID 0000.0001)  exf_GetFFieldsRec:      count0, count1:   1   2
(PID.TID 0000.0001) 
(PID.TID 0000.0001) 
(PID.TID 0000.0001)  exf_GetFFieldsRec: first, changed, fac:   F   F   0.49863388E+00
(PID.TID 0000.0001)  exf_GetFFieldsRec:      count0, count1:   1   2
(PID.TID 0000.0001) 
 cg2d: Sum(rhs),rhsMax =   7.37474317724640E-16  1.23585471329616E+00
(PID.TID 0000.0001)                    cg2d_init_res =    3.48544561449350E-01
(PID.TID 0000.0001)                       cg2d_iters =    45
(PID.TID 0000.0001)                         cg2d_res =    6.49477568468020E-14
(PID.TID 0000.0001) 
(PID.TID 0000.0001)  cal_TimeStamp: iter =          2 time =  0.72000000E+04
(PID.TID 0000.0001)                 date =   19790101       20000
(PID.TID 0000.0001) 
(PID.TID 0000.0001) 
(PID.TID 0000.0001)  exf_GetFFieldsRec: first, changed, fac:   F   F   0.49726776E+00
(PID.TID 0000.0001)  exf_GetFFieldsRec:      count0, count1:   1   2
(PID.TID 0000.0001) 
(PID.TID 0000.0001) 
(PID.TID 0000.0001)  exf_GetFFieldsRec: first, changed, fac:   F   F   0.49726776E+00
(PID.TID 0000.0001)  exf_GetFFieldsRec:      count0, count1:   1   2
(PID.TID 0000.0001) 
(PID.TID 0000.0001)  MDSREADFIELD: opening file: xx_uwind.0000000000.001.001.data
(PID.TID 0000.0001)  MDSREADFIELD: opening file: xx_uwind.0000000000.001.001.data
(PID.TID 0000.0001)  MDSREADFIELD: opening file: xx_vwind.0000000000.001.001.data
(PID.TID 0000.0001)  MDSREADFIELD: opening file: xx_vwind.0000000000.001.001.data
(PID.TID 0000.0001) 
(PID.TID 0000.0001)  exf_GetFFieldsRec: first, changed, fac:   F   F   0.49726776E+00
(PID.TID 0000.0001)  exf_GetFFieldsRec:      count0, count1:   1   2
(PID.TID 0000.0001) 
(PID.TID 0000.0001) 
(PID.TID 0000.0001)  exf_GetFFieldsRec: first, changed, fac:   F   F   0.49726776E+00
(PID.TID 0000.0001)  exf_GetFFieldsRec:      count0, count1:   1   2
(PID.TID 0000.0001) 
(PID.TID 0000.0001) 
(PID.TID 0000.0001)  exf_GetFFieldsRec: first, changed, fac:   F   F   0.49726776E+00
(PID.TID 0000.0001)  exf_GetFFieldsRec:      count0, count1:   1   2
(PID.TID 0000.0001) 
(PID.TID 0000.0001)  MDSREADFIELD: opening file: xx_atemp.0000000000.001.001.data
(PID.TID 0000.0001)  MDSREADFIELD: opening file: xx_atemp.0000000000.001.001.data
(PID.TID 0000.0001)  MDSREADFIELD: opening file: xx_aqh.0000000000.001.001.data
(PID.TID 0000.0001)  MDSREADFIELD: opening file: xx_aqh.0000000000.001.001.data
(PID.TID 0000.0001) 
(PID.TID 0000.0001)  exf_GetFFieldsRec: first, changed, fac:   F   F   0.49726776E+00
(PID.TID 0000.0001)  exf_GetFFieldsRec:      count0, count1:   1   2
(PID.TID 0000.0001) 
(PID.TID 0000.0001) 
(PID.TID 0000.0001)  exf_GetFFieldsRec: first, changed, fac:   F   F   0.49726776E+00
(PID.TID 0000.0001)  exf_GetFFieldsRec:      count0, count1:   1   2
(PID.TID 0000.0001) 
 cg2d: Sum(rhs),rhsMax =   5.65086172299445E-15  1.25438452343301E+00
(PID.TID 0000.0001)                    cg2d_init_res =    2.36078257970435E-01
(PID.TID 0000.0001)                       cg2d_iters =    45
(PID.TID 0000.0001)                         cg2d_res =    6.62546241002566E-14
(PID.TID 0000.0001) 
(PID.TID 0000.0001)  cal_TimeStamp: iter =          3 time =  0.10800000E+05
(PID.TID 0000.0001)                 date =   19790101       30000
(PID.TID 0000.0001) 
(PID.TID 0000.0001) 
(PID.TID 0000.0001)  exf_GetFFieldsRec: first, changed, fac:   F   F   0.49590164E+00
(PID.TID 0000.0001)  exf_GetFFieldsRec:      count0, count1:   1   2
(PID.TID 0000.0001) 
(PID.TID 0000.0001) 
(PID.TID 0000.0001)  exf_GetFFieldsRec: first, changed, fac:   F   F   0.49590164E+00
(PID.TID 0000.0001)  exf_GetFFieldsRec:      count0, count1:   1   2
(PID.TID 0000.0001) 
(PID.TID 0000.0001)  MDSREADFIELD: opening file: xx_uwind.0000000000.001.001.data
(PID.TID 0000.0001)  MDSREADFIELD: opening file: xx_uwind.0000000000.001.001.data
(PID.TID 0000.0001)  MDSREADFIELD: opening file: xx_vwind.0000000000.001.001.data
(PID.TID 0000.0001)  MDSREADFIELD: opening file: xx_vwind.0000000000.001.001.data
(PID.TID 0000.0001) 
(PID.TID 0000.0001)  exf_GetFFieldsRec: first, changed, fac:   F   F   0.49590164E+00
(PID.TID 0000.0001)  exf_GetFFieldsRec:      count0, count1:   1   2
(PID.TID 0000.0001) 
(PID.TID 0000.0001) 
(PID.TID 0000.0001)  exf_GetFFieldsRec: first, changed, fac:   F   F   0.49590164E+00
(PID.TID 0000.0001)  exf_GetFFieldsRec:      count0, count1:   1   2
(PID.TID 0000.0001) 
(PID.TID 0000.0001) 
(PID.TID 0000.0001)  exf_GetFFieldsRec: first, changed, fac:   F   F   0.49590164E+00
(PID.TID 0000.0001)  exf_GetFFieldsRec:      count0, count1:   1   2
(PID.TID 0000.0001) 
(PID.TID 0000.0001)  MDSREADFIELD: opening file: xx_atemp.0000000000.001.001.data
(PID.TID 0000.0001)  MDSREADFIELD: opening file: xx_atemp.0000000000.001.001.data
(PID.TID 0000.0001)  MDSREADFIELD: opening file: xx_aqh.0000000000.001.001.data
(PID.TID 0000.0001)  MDSREADFIELD: opening file: xx_aqh.0000000000.001.001.data
(PID.TID 0000.0001) 
(PID.TID 0000.0001)  exf_GetFFieldsRec: first, changed, fac:   F   F   0.49590164E+00
(PID.TID 0000.0001)  exf_GetFFieldsRec:      count0, count1:   1   2
(PID.TID 0000.0001) 
(PID.TID 0000.0001) 
(PID.TID 0000.0001)  exf_GetFFieldsRec: first, changed, fac:   F   F   0.49590164E+00
(PID.TID 0000.0001)  exf_GetFFieldsRec:      count0, count1:   1   2
(PID.TID 0000.0001) 
 cg2d: Sum(rhs),rhsMax =   2.87833992751452E-15  1.25494322187438E+00
(PID.TID 0000.0001)                    cg2d_init_res =    1.82553144022064E-01
(PID.TID 0000.0001)                       cg2d_iters =    45
(PID.TID 0000.0001)                         cg2d_res =    5.12415172584134E-14
(PID.TID 0000.0001) 
(PID.TID 0000.0001)  cal_TimeStamp: iter =          4 time =  0.14400000E+05
(PID.TID 0000.0001)                 date =   19790101       40000
(PID.TID 0000.0001) 
(PID.TID 0000.0001)  MDSREADFIELD: opening file: tbar.0000000000.001.001.data
(PID.TID 0000.0001)  MDSREADFIELD: opening global file: labsea_SST_fields
(PID.TID 0000.0001)  MDSREADFIELD: opening file: tbar.0000000000.001.001.data
(PID.TID 0000.0001)  MDSREADFIELD: opening global file: labsea_Lev.ptmp
(PID.TID 0000.0001)  MDSREADFIELD: opening file: sbar.0000000000.001.001.data
(PID.TID 0000.0001)  MDSREADFIELD: opening global file: labsea_Lev.salt
(PID.TID 0000.0001)  MDSREADFIELD: opening file: psbar.0000000000.001.001.data
(PID.TID 0000.0001)  MDSREADFIELD: opening global file: labsea_TP_mean

  cost_ssh: offset_sum =   71.

(PID.TID 0000.0001)  MDSREADFIELD: opening file: psbar.0000000000.001.001.data
(PID.TID 0000.0001)  MDSREADFIELD: opening global file: labsea_TP_fields
(PID.TID 0000.0001)  MDSREADFIELD: opening global file: labsea_ERS_fields
(PID.TID 0000.0001)  MDSREADFIELD: opening file: tbar.0000000000.001.001.data
(PID.TID 0000.0001)  MDSREADFIELD: opening global file: labsea_SST_fields
  --> objf_temp(bi,bj)    =  913.322487
  --> objf_salt(bi,bj)    =  293.144573
  --> objf_temp0(bi,bj)   =  0.
  --> objf_salt0(bi,bj)   =  0.
  --> objf_sst(bi,bj)     =  201.662552
  --> objf_sss(bi,bj)     =  0.
  --> objf_h(bi,bj)       =  0.
  --> objf_hmean          =  0.0266992949
  --> objf_tauu(bi,bj)    =  0.
  --> objf_tauum(bi,bj)   =  0.
  --> objf_tauv(bi,bj)    =  0.
  --> objf_tauvm(bi,bj)   =  0.
  --> objf_hflux(bi,bj)   =  0.
  --> objf_hflux(bi,bj)   =  0.
  --> objf_hflux(bi,bj)   =  0.
  --> objf_sflux(bi,bj)   =  0.
  --> objf_sflux(bi,bj)   =  0.
  --> objf_sflux(bi,bj)   =  0.
  --> objf_atl(bi,bj)     =  0.
  --> objf_ctdt(bi,bj)    =  0.
  --> objf_ctds(bi,bj)    =  0.
  --> objf_xbt(bi,bj)     =  0.
  --> objf_argot(bi,bj)   =  0.
  --> objf_argos(bi,bj)   =  0.
  --> objf_drift(bi,bj)   =  0.
  --> objf_tdrift(bi,bj)  =  0.
  --> objf_sdrift(bi,bj)  =  0.
  --> objf_wdrift(bi,bj)  =  0.
  --> objf_scatx(bi,bj)   =  0.
  --> objf_scaty(bi,bj)   =  0.
  --> objf_scatxm(bi,bj)  =  0.
  --> objf_scatym(bi,bj)  =  0.
  --> objf_uwind(bi,bj)   =  0.
  --> objf_vwind(bi,bj)   =  0.
  --> objf_atemp(bi,bj)   =  9.E-08
  --> objf_aqh(bi,bj)     =  0.
  --> objf_obcsn(bi,bj)   =  0.
  --> objf_obcss(bi,bj)   =  0.
  --> objf_obcsw(bi,bj)   =  0.
  --> objf_obcse(bi,bj)   =  0.
  --> objf_hmean           =  0.0266992949
  --> fc               =  1408.15631
(PID.TID 0000.0001)  MDSREADFIELD: opening file: xx_atemp.0000000000.001.001.data
(PID.TID 0000.0001)  MDSREADFIELD: opening file: xx_atemp.0000000000.001.001.data
(PID.TID 0000.0001) 
(PID.TID 0000.0001)  cal_TimeStamp: iter =          0 time =  0.00000000E+00
(PID.TID 0000.0001)                 date =   19790101           0
(PID.TID 0000.0001) 
(PID.TID 0000.0001) %MON kefCori_max                  =   1.4171638136144E-04
(PID.TID 0000.0001) %MON kefCori_min                  =   1.0637108408252E-04
(PID.TID 0000.0001) %MON kefCori_mean                 =   1.2676338344768E-04
(PID.TID 0000.0001) %MON kefCori_sd                   =   1.1001401444773E-05
(PID.TID 0000.0001) %MON kefCoriG_max                 =   1.4112379284621E-04
(PID.TID 0000.0001) %MON kefCoriG_min                 =   1.0462373297123E-04
(PID.TID 0000.0001) %MON kefCoriG_mean                =   1.2556776212280E-04
(PID.TID 0000.0001) %MON kefCoriG_sd                  =   1.1352720951562E-05
(PID.TID 0000.0001) // CG2D normalisation factor =          0.1609493984093919507084164E-03
(PID.TID 0000.0001) 
(PID.TID 0000.0001)  MDSREADFIELD: opening global file: LevCli_temp.labsea
(PID.TID 0000.0001) // =======================================================
(PID.TID 0000.0001) // Field Initial Temperature at iteration          1
(PID.TID 0000.0001) // CMIN =          9.205863475799561E-01
(PID.TID 0000.0001) // CMAX =          1.333307647705078E+01
(PID.TID 0000.0001) // CINT =          4.597218566470676E-01
(PID.TID 0000.0001) // SYMBOLS (CMIN->CMAX): -abcdefghijklmnopqrstuvwxyz+
(PID.TID 0000.0001) //                  0.0: .
(PID.TID 0000.0001) // RANGE I (Lo:Hi:Step):(   1:  20:   1)
(PID.TID 0000.0001) // RANGE J (Lo:Hi:Step):(  16:   1:  -1)
(PID.TID 0000.0001) // RANGE K (Lo:Hi:Step):(   1:   1:   1)
(PID.TID 0000.0001) // =======================================================
(PID.TID 0000.0001) K =   1
(PID.TID 0000.0001)                I=10      I=20
(PID.TID 0000.0001) |--J--|123456789|123456789|
(PID.TID 0000.0001)     16 .----...............
(PID.TID 0000.0001)     15 aabaaaaaaaa.........
(PID.TID 0000.0001)     14 .ccccccbbbbc........
(PID.TID 0000.0001)     13 ....dddddddd........
(PID.TID 0000.0001)     12 ......dcdddddd......
(PID.TID 0000.0001)     11 ........cccdd.......
(PID.TID 0000.0001)     10 .......bbcdddd......
(PID.TID 0000.0001)      9 .......cdeeffff....j
(PID.TID 0000.0001)      8 .....ccdefgghhggh..k
(PID.TID 0000.0001)      7 ......d.fghiiiiiijkl
(PID.TID 0000.0001)      6 .........ghhijjjkklm
(PID.TID 0000.0001)      5 ..........hhhijklmnn
(PID.TID 0000.0001)      4 ............ghikmopq
(PID.TID 0000.0001)      3 ..........k.hhiknqsu
(PID.TID 0000.0001)      2 .......oonm..ijknqux
(PID.TID 0000.0001)      1 ........qponlkklosw+
(PID.TID 0000.0001) // =======================================================
(PID.TID 0000.0001) // END OF FIELD                                          =
(PID.TID 0000.0001) // =======================================================
(PID.TID 0000.0001) 
(PID.TID 0000.0001)  MDSREADFIELD: opening global file: LevCli_salt.labsea
(PID.TID 0000.0001) // =======================================================
(PID.TID 0000.0001) // Field Initial Salinity at iteration          1
(PID.TID 0000.0001) // CMIN =          3.012869834899902E+01
(PID.TID 0000.0001) // CMAX =          3.487366104125977E+01
(PID.TID 0000.0001) // CINT =          1.757393589726201E-01
(PID.TID 0000.0001) // SYMBOLS (CMIN->CMAX): -abcdefghijklmnopqrstuvwxyz+
(PID.TID 0000.0001) //                  0.0: .
(PID.TID 0000.0001) // RANGE I (Lo:Hi:Step):(   1:  20:   1)
(PID.TID 0000.0001) // RANGE J (Lo:Hi:Step):(  16:   1:  -1)
(PID.TID 0000.0001) // RANGE K (Lo:Hi:Step):(   1:   1:   1)
(PID.TID 0000.0001) // =======================================================
(PID.TID 0000.0001) K =   1
(PID.TID 0000.0001)                I=10      I=20
(PID.TID 0000.0001) |--J--|123456789|123456789|
(PID.TID 0000.0001)     16 .nnos...............
(PID.TID 0000.0001)     15 lnoppppppol.........
(PID.TID 0000.0001)     14 .nponmllllmn........
(PID.TID 0000.0001)     13 ....ljhijkmo........
(PID.TID 0000.0001)     12 ......ghjlmors......
(PID.TID 0000.0001)     11 ........jmnpr.......
(PID.TID 0000.0001)     10 .......jlnpqrq......
(PID.TID 0000.0001)      9 .......noqsttts....w
(PID.TID 0000.0001)      8 .....jlnpsuvwwutu..x
(PID.TID 0000.0001)      7 ......j.rruwxyxxwxxy
(PID.TID 0000.0001)      6 .........ppruxyyzzzz
(PID.TID 0000.0001)      5 ..........ijoswyzzzz
(PID.TID 0000.0001)      4 ............iotwyzzz
(PID.TID 0000.0001)      3 ..........g.imquwyzz
(PID.TID 0000.0001)      2 .......-bef..knqtvxz
(PID.TID 0000.0001)      1 ........-cegijlosvy+
(PID.TID 0000.0001) // =======================================================
(PID.TID 0000.0001) // END OF FIELD                                          =
(PID.TID 0000.0001) // =======================================================
(PID.TID 0000.0001) 
(PID.TID 0000.0001)  MDSREADFIELD: opening file: xx_theta.0000000000.001.001.data
(PID.TID 0000.0001)  MDSREADFIELD: opening file: xx_salt.0000000000.001.001.data
(PID.TID 0000.0001) // =======================================================
(PID.TID 0000.0001) // Model current state
(PID.TID 0000.0001) // =======================================================
(PID.TID 0000.0001) 
(PID.TID 0000.0001) // =======================================================
(PID.TID 0000.0001) // Begin MONITOR dynamic field statistics
(PID.TID 0000.0001) // =======================================================
(PID.TID 0000.0001) %MON time_tsnumber                =                     0
(PID.TID 0000.0001) %MON time_secondsf                =   0.0000000000000E+00
(PID.TID 0000.0001) %MON time_secondsi                =                     0
(PID.TID 0000.0001) %MON dynstat_eta_max              =   0.0000000000000E+00
(PID.TID 0000.0001) %MON dynstat_eta_min              =   0.0000000000000E+00
(PID.TID 0000.0001) %MON dynstat_eta_mean             =   0.0000000000000E+00
(PID.TID 0000.0001) %MON dynstat_eta_sd               =   0.0000000000000E+00
(PID.TID 0000.0001) %MON dynstat_eta_del2             =   0.0000000000000E+00
(PID.TID 0000.0001) %MON dynstat_uvel_max             =   0.0000000000000E+00
(PID.TID 0000.0001) %MON dynstat_uvel_min             =   0.0000000000000E+00
(PID.TID 0000.0001) %MON dynstat_uvel_mean            =   0.0000000000000E+00
(PID.TID 0000.0001) %MON dynstat_uvel_sd              =   0.0000000000000E+00
(PID.TID 0000.0001) %MON dynstat_uvel_del2            =   0.0000000000000E+00
(PID.TID 0000.0001) %MON dynstat_vvel_max             =   0.0000000000000E+00
(PID.TID 0000.0001) %MON dynstat_vvel_min             =   0.0000000000000E+00
(PID.TID 0000.0001) %MON dynstat_vvel_mean            =   0.0000000000000E+00
(PID.TID 0000.0001) %MON dynstat_vvel_sd              =   0.0000000000000E+00
(PID.TID 0000.0001) %MON dynstat_vvel_del2            =   0.0000000000000E+00
(PID.TID 0000.0001) %MON dynstat_wvel_max             =   0.0000000000000E+00
(PID.TID 0000.0001) %MON dynstat_wvel_min             =   0.0000000000000E+00
(PID.TID 0000.0001) %MON dynstat_wvel_mean            =   0.0000000000000E+00
(PID.TID 0000.0001) %MON dynstat_wvel_sd              =   0.0000000000000E+00
(PID.TID 0000.0001) %MON dynstat_wvel_del2            =   0.0000000000000E+00
(PID.TID 0000.0001) %MON dynstat_theta_max            =   1.3333076477051E+01
(PID.TID 0000.0001) %MON dynstat_theta_min            =  -1.4103618860245E+00
(PID.TID 0000.0001) %MON dynstat_theta_mean           =   3.1168426975828E+00
(PID.TID 0000.0001) %MON dynstat_theta_sd             =   1.4047681849177E+00
(PID.TID 0000.0001) %MON dynstat_theta_del2           =   9.7237468258508E-02
(PID.TID 0000.0001) %MON dynstat_salt_max             =   3.5450622558594E+01
(PID.TID 0000.0001) %MON dynstat_salt_min             =   3.0128698348999E+01
(PID.TID 0000.0001) %MON dynstat_salt_mean            =   3.4759355674691E+01
(PID.TID 0000.0001) %MON dynstat_salt_sd              =   4.4306214753982E-01
(PID.TID 0000.0001) %MON dynstat_salt_del2            =   3.8354629598638E-02
(PID.TID 0000.0001) %MON advcfl_uvel_max              =   0.0000000000000E+00
(PID.TID 0000.0001) %MON advcfl_vvel_max              =   0.0000000000000E+00
(PID.TID 0000.0001) %MON advcfl_wvel_max              =   0.0000000000000E+00
(PID.TID 0000.0001) %MON advcfl_W_hf_max              =   0.0000000000000E+00
(PID.TID 0000.0001) %MON ke_max                       =   0.0000000000000E+00
(PID.TID 0000.0001) %MON ke_mean                      =   0.0000000000000E+00
(PID.TID 0000.0001) %MON ke_volint                    =   0.0000000000000E+00
(PID.TID 0000.0001) %MON ke_volmean                   =   0.0000000000000E+00
(PID.TID 0000.0001) // =======================================================
(PID.TID 0000.0001) // End MONITOR dynamic field statistics
(PID.TID 0000.0001) // =======================================================
(PID.TID 0000.0001)  MDSREADFIELD: opening file: xx_atemp.0000000000.001.001.data
(PID.TID 0000.0001)  MDSREADFIELD: opening file: xx_atemp.0000000000.001.001.data
(PID.TID 0000.0001)  MDSREADFIELD: opening file: xx_aqh.0000000000.001.001.data
(PID.TID 0000.0001)  MDSREADFIELD: opening file: xx_aqh.0000000000.001.001.data
(PID.TID 0000.0001)  MDSREADFIELD: opening file: xx_uwind.0000000000.001.001.data
(PID.TID 0000.0001)  MDSREADFIELD: opening file: xx_uwind.0000000000.001.001.data
(PID.TID 0000.0001)  MDSREADFIELD: opening file: xx_vwind.0000000000.001.001.data
(PID.TID 0000.0001)  MDSREADFIELD: opening file: xx_vwind.0000000000.001.001.data
(PID.TID 0000.0001) 
(PID.TID 0000.0001)  exf_GetFFieldsRec: first, changed, fac:   T   F   0.50000000E+00
(PID.TID 0000.0001)  exf_GetFFieldsRec:      count0, count1:   1   2
(PID.TID 0000.0001) 
(PID.TID 0000.0001)  MDSREADFIELD: opening global file: u10m.labsea79
(PID.TID 0000.0001)  MDSREADFIELD: opening global file: u10m.labsea79
(PID.TID 0000.0001) 
(PID.TID 0000.0001)  exf_GetFFieldsRec: first, changed, fac:   T   F   0.50000000E+00
(PID.TID 0000.0001)  exf_GetFFieldsRec:      count0, count1:   1   2
(PID.TID 0000.0001) 
(PID.TID 0000.0001)  MDSREADFIELD: opening global file: v10m.labsea79
(PID.TID 0000.0001)  MDSREADFIELD: opening global file: v10m.labsea79
(PID.TID 0000.0001)  MDSREADFIELD: opening file: xx_uwind.0000000000.001.001.data
(PID.TID 0000.0001)  MDSREADFIELD: opening file: xx_uwind.0000000000.001.001.data
(PID.TID 0000.0001)  MDSREADFIELD: opening file: xx_vwind.0000000000.001.001.data
(PID.TID 0000.0001)  MDSREADFIELD: opening file: xx_vwind.0000000000.001.001.data
(PID.TID 0000.0001) 
(PID.TID 0000.0001)  exf_GetFFieldsRec: first, changed, fac:   T   F   0.50000000E+00
(PID.TID 0000.0001)  exf_GetFFieldsRec:      count0, count1:   1   2
(PID.TID 0000.0001) 
(PID.TID 0000.0001)  MDSREADFIELD: opening global file: tair.labsea1979
(PID.TID 0000.0001)  MDSREADFIELD: opening global file: tair.labsea1979
(PID.TID 0000.0001) 
(PID.TID 0000.0001)  exf_GetFFieldsRec: first, changed, fac:   T   F   0.50000000E+00
(PID.TID 0000.0001)  exf_GetFFieldsRec:      count0, count1:   1   2
(PID.TID 0000.0001) 
(PID.TID 0000.0001)  MDSREADFIELD: opening global file: qa.labsea1979
(PID.TID 0000.0001)  MDSREADFIELD: opening global file: qa.labsea1979
(PID.TID 0000.0001) 
(PID.TID 0000.0001)  exf_GetFFieldsRec: first, changed, fac:   T   F   0.50000000E+00
(PID.TID 0000.0001)  exf_GetFFieldsRec:      count0, count1:   1   2
(PID.TID 0000.0001) 
(PID.TID 0000.0001)  MDSREADFIELD: opening global file: prate.labsea1979
(PID.TID 0000.0001)  MDSREADFIELD: opening global file: prate.labsea1979
(PID.TID 0000.0001)  MDSREADFIELD: opening file: xx_atemp.0000000000.001.001.data
(PID.TID 0000.0001)  MDSREADFIELD: opening file: xx_atemp.0000000000.001.001.data
(PID.TID 0000.0001)  MDSREADFIELD: opening file: xx_aqh.0000000000.001.001.data
(PID.TID 0000.0001)  MDSREADFIELD: opening file: xx_aqh.0000000000.001.001.data
(PID.TID 0000.0001) 
(PID.TID 0000.0001)  exf_GetFFieldsRec: first, changed, fac:   T   F   0.50000000E+00
(PID.TID 0000.0001)  exf_GetFFieldsRec:      count0, count1:   1   2
(PID.TID 0000.0001) 
(PID.TID 0000.0001)  MDSREADFIELD: opening global file: fsh.labsea1979
(PID.TID 0000.0001)  MDSREADFIELD: opening global file: fsh.labsea1979
(PID.TID 0000.0001) 
(PID.TID 0000.0001)  exf_GetFFieldsRec: first, changed, fac:   T   F   0.50000000E+00
(PID.TID 0000.0001)  exf_GetFFieldsRec:      count0, count1:   1   2
(PID.TID 0000.0001) 
(PID.TID 0000.0001)  MDSREADFIELD: opening global file: flo.labsea1979
(PID.TID 0000.0001)  MDSREADFIELD: opening global file: flo.labsea1979
 pathei: in check_exp: iter/time/rec/yprefix  0  0. 1 kf_
 pathei: in check_exp: date   0
 pathei: in check_exp: theta  -1.96
 pathei: in check_exp: salt    32.5598145
 pathei: in check_exp: uvel    0.
 pathei: in check_exp: vvel    0.
 pathei: in check_exp: qnet    0.
 pathei: in check_exp: empmr  -0.000153695737
 pathei: in check_exp: fu      0.0119642461
 pathei: in check_exp: fv     -0.0250166478
 cg2d: Sum(rhs),rhsMax =   1.95590071916385E-16  1.00807802167630E+00
(PID.TID 0000.0001)                    cg2d_init_res =    1.61521300655486E+00
(PID.TID 0000.0001)                       cg2d_iters =    47
(PID.TID 0000.0001)                         cg2d_res =    5.70138941994743E-14
(PID.TID 0000.0001) 
(PID.TID 0000.0001)  cal_TimeStamp: iter =          1 time =  0.36000000E+04
(PID.TID 0000.0001)                 date =   19790101       10000
(PID.TID 0000.0001) 
(PID.TID 0000.0001) 
(PID.TID 0000.0001)  exf_GetFFieldsRec: first, changed, fac:   F   F   0.49863388E+00
(PID.TID 0000.0001)  exf_GetFFieldsRec:      count0, count1:   1   2
(PID.TID 0000.0001) 
(PID.TID 0000.0001) 
(PID.TID 0000.0001)  exf_GetFFieldsRec: first, changed, fac:   F   F   0.49863388E+00
(PID.TID 0000.0001)  exf_GetFFieldsRec:      count0, count1:   1   2
(PID.TID 0000.0001) 
(PID.TID 0000.0001)  MDSREADFIELD: opening file: xx_uwind.0000000000.001.001.data
(PID.TID 0000.0001)  MDSREADFIELD: opening file: xx_uwind.0000000000.001.001.data
(PID.TID 0000.0001)  MDSREADFIELD: opening file: xx_vwind.0000000000.001.001.data
(PID.TID 0000.0001)  MDSREADFIELD: opening file: xx_vwind.0000000000.001.001.data
(PID.TID 0000.0001) 
(PID.TID 0000.0001)  exf_GetFFieldsRec: first, changed, fac:   F   F   0.49863388E+00
(PID.TID 0000.0001)  exf_GetFFieldsRec:      count0, count1:   1   2
(PID.TID 0000.0001) 
(PID.TID 0000.0001) 
(PID.TID 0000.0001)  exf_GetFFieldsRec: first, changed, fac:   F   F   0.49863388E+00
(PID.TID 0000.0001)  exf_GetFFieldsRec:      count0, count1:   1   2
(PID.TID 0000.0001) 
(PID.TID 0000.0001) 
(PID.TID 0000.0001)  exf_GetFFieldsRec: first, changed, fac:   F   F   0.49863388E+00
(PID.TID 0000.0001)  exf_GetFFieldsRec:      count0, count1:   1   2
(PID.TID 0000.0001) 
(PID.TID 0000.0001)  MDSREADFIELD: opening file: xx_atemp.0000000000.001.001.data
(PID.TID 0000.0001)  MDSREADFIELD: opening file: xx_atemp.0000000000.001.001.data
(PID.TID 0000.0001)  MDSREADFIELD: opening file: xx_aqh.0000000000.001.001.data
(PID.TID 0000.0001)  MDSREADFIELD: opening file: xx_aqh.0000000000.001.001.data
(PID.TID 0000.0001) 
(PID.TID 0000.0001)  exf_GetFFieldsRec: first, changed, fac:   F   F   0.49863388E+00
(PID.TID 0000.0001)  exf_GetFFieldsRec:      count0, count1:   1   2
(PID.TID 0000.0001) 
(PID.TID 0000.0001) 
(PID.TID 0000.0001)  exf_GetFFieldsRec: first, changed, fac:   F   F   0.49863388E+00
(PID.TID 0000.0001)  exf_GetFFieldsRec:      count0, count1:   1   2
(PID.TID 0000.0001) 
 cg2d: Sum(rhs),rhsMax =   5.15429712799609E-16  1.23585471329616E+00
(PID.TID 0000.0001)                    cg2d_init_res =    3.48544561452539E-01
(PID.TID 0000.0001)                       cg2d_iters =    45
(PID.TID 0000.0001)                         cg2d_res =    6.49477568722327E-14
(PID.TID 0000.0001) 
(PID.TID 0000.0001)  cal_TimeStamp: iter =          2 time =  0.72000000E+04
(PID.TID 0000.0001)                 date =   19790101       20000
(PID.TID 0000.0001) 
(PID.TID 0000.0001) 
(PID.TID 0000.0001)  exf_GetFFieldsRec: first, changed, fac:   F   F   0.49726776E+00
(PID.TID 0000.0001)  exf_GetFFieldsRec:      count0, count1:   1   2
(PID.TID 0000.0001) 
(PID.TID 0000.0001) 
(PID.TID 0000.0001)  exf_GetFFieldsRec: first, changed, fac:   F   F   0.49726776E+00
(PID.TID 0000.0001)  exf_GetFFieldsRec:      count0, count1:   1   2
(PID.TID 0000.0001) 
(PID.TID 0000.0001)  MDSREADFIELD: opening file: xx_uwind.0000000000.001.001.data
(PID.TID 0000.0001)  MDSREADFIELD: opening file: xx_uwind.0000000000.001.001.data
(PID.TID 0000.0001)  MDSREADFIELD: opening file: xx_vwind.0000000000.001.001.data
(PID.TID 0000.0001)  MDSREADFIELD: opening file: xx_vwind.0000000000.001.001.data
(PID.TID 0000.0001) 
(PID.TID 0000.0001)  exf_GetFFieldsRec: first, changed, fac:   F   F   0.49726776E+00
(PID.TID 0000.0001)  exf_GetFFieldsRec:      count0, count1:   1   2
(PID.TID 0000.0001) 
(PID.TID 0000.0001) 
(PID.TID 0000.0001)  exf_GetFFieldsRec: first, changed, fac:   F   F   0.49726776E+00
(PID.TID 0000.0001)  exf_GetFFieldsRec:      count0, count1:   1   2
(PID.TID 0000.0001) 
(PID.TID 0000.0001) 
(PID.TID 0000.0001)  exf_GetFFieldsRec: first, changed, fac:   F   F   0.49726776E+00
(PID.TID 0000.0001)  exf_GetFFieldsRec:      count0, count1:   1   2
(PID.TID 0000.0001) 
(PID.TID 0000.0001)  MDSREADFIELD: opening file: xx_atemp.0000000000.001.001.data
(PID.TID 0000.0001)  MDSREADFIELD: opening file: xx_atemp.0000000000.001.001.data
(PID.TID 0000.0001)  MDSREADFIELD: opening file: xx_aqh.0000000000.001.001.data
(PID.TID 0000.0001)  MDSREADFIELD: opening file: xx_aqh.0000000000.001.001.data
(PID.TID 0000.0001) 
(PID.TID 0000.0001)  exf_GetFFieldsRec: first, changed, fac:   F   F   0.49726776E+00
(PID.TID 0000.0001)  exf_GetFFieldsRec:      count0, count1:   1   2
(PID.TID 0000.0001) 
(PID.TID 0000.0001) 
(PID.TID 0000.0001)  exf_GetFFieldsRec: first, changed, fac:   F   F   0.49726776E+00
(PID.TID 0000.0001)  exf_GetFFieldsRec:      count0, count1:   1   2
(PID.TID 0000.0001) 
 cg2d: Sum(rhs),rhsMax =   4.08180433897343E-15  1.25438452343303E+00
(PID.TID 0000.0001)                    cg2d_init_res =    2.36078257973342E-01
(PID.TID 0000.0001)                       cg2d_iters =    45
(PID.TID 0000.0001)                         cg2d_res =    6.62546240467075E-14
(PID.TID 0000.0001) 
(PID.TID 0000.0001)  cal_TimeStamp: iter =          3 time =  0.10800000E+05
(PID.TID 0000.0001)                 date =   19790101       30000
(PID.TID 0000.0001) 
(PID.TID 0000.0001) 
(PID.TID 0000.0001)  exf_GetFFieldsRec: first, changed, fac:   F   F   0.49590164E+00
(PID.TID 0000.0001)  exf_GetFFieldsRec:      count0, count1:   1   2
(PID.TID 0000.0001) 
(PID.TID 0000.0001) 
(PID.TID 0000.0001)  exf_GetFFieldsRec: first, changed, fac:   F   F   0.49590164E+00
(PID.TID 0000.0001)  exf_GetFFieldsRec:      count0, count1:   1   2
(PID.TID 0000.0001) 
(PID.TID 0000.0001)  MDSREADFIELD: opening file: xx_uwind.0000000000.001.001.data
(PID.TID 0000.0001)  MDSREADFIELD: opening file: xx_uwind.0000000000.001.001.data
(PID.TID 0000.0001)  MDSREADFIELD: opening file: xx_vwind.0000000000.001.001.data
(PID.TID 0000.0001)  MDSREADFIELD: opening file: xx_vwind.0000000000.001.001.data
(PID.TID 0000.0001) 
(PID.TID 0000.0001)  exf_GetFFieldsRec: first, changed, fac:   F   F   0.49590164E+00
(PID.TID 0000.0001)  exf_GetFFieldsRec:      count0, count1:   1   2
(PID.TID 0000.0001) 
(PID.TID 0000.0001) 
(PID.TID 0000.0001)  exf_GetFFieldsRec: first, changed, fac:   F   F   0.49590164E+00
(PID.TID 0000.0001)  exf_GetFFieldsRec:      count0, count1:   1   2
(PID.TID 0000.0001) 
(PID.TID 0000.0001) 
(PID.TID 0000.0001)  exf_GetFFieldsRec: first, changed, fac:   F   F   0.49590164E+00
(PID.TID 0000.0001)  exf_GetFFieldsRec:      count0, count1:   1   2
(PID.TID 0000.0001) 
(PID.TID 0000.0001)  MDSREADFIELD: opening file: xx_atemp.0000000000.001.001.data
(PID.TID 0000.0001)  MDSREADFIELD: opening file: xx_atemp.0000000000.001.001.data
(PID.TID 0000.0001)  MDSREADFIELD: opening file: xx_aqh.0000000000.001.001.data
(PID.TID 0000.0001)  MDSREADFIELD: opening file: xx_aqh.0000000000.001.001.data
(PID.TID 0000.0001) 
(PID.TID 0000.0001)  exf_GetFFieldsRec: first, changed, fac:   F   F   0.49590164E+00
(PID.TID 0000.0001)  exf_GetFFieldsRec:      count0, count1:   1   2
(PID.TID 0000.0001) 
(PID.TID 0000.0001) 
(PID.TID 0000.0001)  exf_GetFFieldsRec: first, changed, fac:   F   F   0.49590164E+00
(PID.TID 0000.0001)  exf_GetFFieldsRec:      count0, count1:   1   2
(PID.TID 0000.0001) 
 cg2d: Sum(rhs),rhsMax =   1.64711994043998E-15  1.25494322187457E+00
(PID.TID 0000.0001)                    cg2d_init_res =    1.82553144007363E-01
(PID.TID 0000.0001)                       cg2d_iters =    45
(PID.TID 0000.0001)                         cg2d_res =    5.12415153980585E-14
(PID.TID 0000.0001) 
(PID.TID 0000.0001)  cal_TimeStamp: iter =          4 time =  0.14400000E+05
(PID.TID 0000.0001)                 date =   19790101       40000
(PID.TID 0000.0001) 
(PID.TID 0000.0001)  MDSREADFIELD: opening file: tbar.0000000000.001.001.data
(PID.TID 0000.0001)  MDSREADFIELD: opening global file: labsea_SST_fields
(PID.TID 0000.0001)  MDSREADFIELD: opening file: tbar.0000000000.001.001.data
(PID.TID 0000.0001)  MDSREADFIELD: opening global file: labsea_Lev.ptmp
(PID.TID 0000.0001)  MDSREADFIELD: opening file: sbar.0000000000.001.001.data
(PID.TID 0000.0001)  MDSREADFIELD: opening global file: labsea_Lev.salt
(PID.TID 0000.0001)  MDSREADFIELD: opening file: psbar.0000000000.001.001.data
(PID.TID 0000.0001)  MDSREADFIELD: opening global file: labsea_TP_mean

  cost_ssh: offset_sum =   71.

(PID.TID 0000.0001)  MDSREADFIELD: opening file: psbar.0000000000.001.001.data
(PID.TID 0000.0001)  MDSREADFIELD: opening global file: labsea_TP_fields
(PID.TID 0000.0001)  MDSREADFIELD: opening global file: labsea_ERS_fields
(PID.TID 0000.0001)  MDSREADFIELD: opening file: tbar.0000000000.001.001.data
(PID.TID 0000.0001)  MDSREADFIELD: opening global file: labsea_SST_fields
  --> objf_temp(bi,bj)    =  913.322487
  --> objf_salt(bi,bj)    =  293.144573
  --> objf_temp0(bi,bj)   =  0.
  --> objf_salt0(bi,bj)   =  0.
  --> objf_sst(bi,bj)     =  201.662552
  --> objf_sss(bi,bj)     =  0.
  --> objf_h(bi,bj)       =  0.
  --> objf_hmean          =  0.0266992949
  --> objf_tauu(bi,bj)    =  0.
  --> objf_tauum(bi,bj)   =  0.
  --> objf_tauv(bi,bj)    =  0.
  --> objf_tauvm(bi,bj)   =  0.
  --> objf_hflux(bi,bj)   =  0.
  --> objf_hflux(bi,bj)   =  0.
  --> objf_hflux(bi,bj)   =  0.
  --> objf_sflux(bi,bj)   =  0.
  --> objf_sflux(bi,bj)   =  0.
  --> objf_sflux(bi,bj)   =  0.
  --> objf_atl(bi,bj)     =  0.
  --> objf_ctdt(bi,bj)    =  0.
  --> objf_ctds(bi,bj)    =  0.
  --> objf_xbt(bi,bj)     =  0.
  --> objf_argot(bi,bj)   =  0.
  --> objf_argos(bi,bj)   =  0.
  --> objf_drift(bi,bj)   =  0.
  --> objf_tdrift(bi,bj)  =  0.
  --> objf_sdrift(bi,bj)  =  0.
  --> objf_wdrift(bi,bj)  =  0.
  --> objf_scatx(bi,bj)   =  0.
  --> objf_scaty(bi,bj)   =  0.
  --> objf_scatxm(bi,bj)  =  0.
  --> objf_scatym(bi,bj)  =  0.
  --> objf_uwind(bi,bj)   =  0.
  --> objf_vwind(bi,bj)   =  0.
  --> objf_atemp(bi,bj)   =  9.E-08
  --> objf_aqh(bi,bj)     =  0.
  --> objf_obcsn(bi,bj)   =  0.
  --> objf_obcss(bi,bj)   =  0.
  --> objf_obcsw(bi,bj)   =  0.
  --> objf_obcse(bi,bj)   =  0.
  --> objf_hmean           =  0.0266992949
  --> fc               =  1408.15631
(PID.TID 0000.0001)  MDSREADFIELD: opening file: xx_atemp.0000000000.001.001.data
 ph-grd 3 -------------------------------
 ph-grd 3     0    2   10    1    1   0.140815631E+04 0.140815631E+04 0.140815631E+04
 ph-grd 3     0    2    2    2    0   -.183849871E-08 0.454747351E-10 0.102473471E+01
(PID.TID 0000.0001)  MDSREADFIELD: opening file: adxx_atemp.0000000000.001.001.data
(PID.TID 0000.0001)  MDSREADFIELD: opening file: xx_atemp.0000000000.001.001.data
(PID.TID 0000.0001) 
(PID.TID 0000.0001)  cal_TimeStamp: iter =          0 time =  0.00000000E+00
(PID.TID 0000.0001)                 date =   19790101           0
(PID.TID 0000.0001) 
(PID.TID 0000.0001) %MON kefCori_max                  =   1.4171638136144E-04
(PID.TID 0000.0001) %MON kefCori_min                  =   1.0637108408252E-04
(PID.TID 0000.0001) %MON kefCori_mean                 =   1.2676338344768E-04
(PID.TID 0000.0001) %MON kefCori_sd                   =   1.1001401444773E-05
(PID.TID 0000.0001) %MON kefCoriG_max                 =   1.4112379284621E-04
(PID.TID 0000.0001) %MON kefCoriG_min                 =   1.0462373297123E-04
(PID.TID 0000.0001) %MON kefCoriG_mean                =   1.2556776212280E-04
(PID.TID 0000.0001) %MON kefCoriG_sd                  =   1.1352720951562E-05
(PID.TID 0000.0001) // CG2D normalisation factor =          0.1609493984093919507084164E-03
(PID.TID 0000.0001) 
(PID.TID 0000.0001)  MDSREADFIELD: opening global file: LevCli_temp.labsea
(PID.TID 0000.0001) // =======================================================
(PID.TID 0000.0001) // Field Initial Temperature at iteration          1
(PID.TID 0000.0001) // CMIN =          9.205863475799561E-01
(PID.TID 0000.0001) // CMAX =          1.333307647705078E+01
(PID.TID 0000.0001) // CINT =          4.597218566470676E-01
(PID.TID 0000.0001) // SYMBOLS (CMIN->CMAX): -abcdefghijklmnopqrstuvwxyz+
(PID.TID 0000.0001) //                  0.0: .
(PID.TID 0000.0001) // RANGE I (Lo:Hi:Step):(   1:  20:   1)
(PID.TID 0000.0001) // RANGE J (Lo:Hi:Step):(  16:   1:  -1)
(PID.TID 0000.0001) // RANGE K (Lo:Hi:Step):(   1:   1:   1)
(PID.TID 0000.0001) // =======================================================
(PID.TID 0000.0001) K =   1
(PID.TID 0000.0001)                I=10      I=20
(PID.TID 0000.0001) |--J--|123456789|123456789|
(PID.TID 0000.0001)     16 .----...............
(PID.TID 0000.0001)     15 aabaaaaaaaa.........
(PID.TID 0000.0001)     14 .ccccccbbbbc........
(PID.TID 0000.0001)     13 ....dddddddd........
(PID.TID 0000.0001)     12 ......dcdddddd......
(PID.TID 0000.0001)     11 ........cccdd.......
(PID.TID 0000.0001)     10 .......bbcdddd......
(PID.TID 0000.0001)      9 .......cdeeffff....j
(PID.TID 0000.0001)      8 .....ccdefgghhggh..k
(PID.TID 0000.0001)      7 ......d.fghiiiiiijkl
(PID.TID 0000.0001)      6 .........ghhijjjkklm
(PID.TID 0000.0001)      5 ..........hhhijklmnn
(PID.TID 0000.0001)      4 ............ghikmopq
(PID.TID 0000.0001)      3 ..........k.hhiknqsu
(PID.TID 0000.0001)      2 .......oonm..ijknqux
(PID.TID 0000.0001)      1 ........qponlkklosw+
(PID.TID 0000.0001) // =======================================================
(PID.TID 0000.0001) // END OF FIELD                                          =
(PID.TID 0000.0001) // =======================================================
(PID.TID 0000.0001) 
(PID.TID 0000.0001)  MDSREADFIELD: opening global file: LevCli_salt.labsea
(PID.TID 0000.0001) // =======================================================
(PID.TID 0000.0001) // Field Initial Salinity at iteration          1
(PID.TID 0000.0001) // CMIN =          3.012869834899902E+01
(PID.TID 0000.0001) // CMAX =          3.487366104125977E+01
(PID.TID 0000.0001) // CINT =          1.757393589726201E-01
(PID.TID 0000.0001) // SYMBOLS (CMIN->CMAX): -abcdefghijklmnopqrstuvwxyz+
(PID.TID 0000.0001) //                  0.0: .
(PID.TID 0000.0001) // RANGE I (Lo:Hi:Step):(   1:  20:   1)
(PID.TID 0000.0001) // RANGE J (Lo:Hi:Step):(  16:   1:  -1)
(PID.TID 0000.0001) // RANGE K (Lo:Hi:Step):(   1:   1:   1)
(PID.TID 0000.0001) // =======================================================
(PID.TID 0000.0001) K =   1
(PID.TID 0000.0001)                I=10      I=20
(PID.TID 0000.0001) |--J--|123456789|123456789|
(PID.TID 0000.0001)     16 .nnos...............
(PID.TID 0000.0001)     15 lnoppppppol.........
(PID.TID 0000.0001)     14 .nponmllllmn........
(PID.TID 0000.0001)     13 ....ljhijkmo........
(PID.TID 0000.0001)     12 ......ghjlmors......
(PID.TID 0000.0001)     11 ........jmnpr.......
(PID.TID 0000.0001)     10 .......jlnpqrq......
(PID.TID 0000.0001)      9 .......noqsttts....w
(PID.TID 0000.0001)      8 .....jlnpsuvwwutu..x
(PID.TID 0000.0001)      7 ......j.rruwxyxxwxxy
(PID.TID 0000.0001)      6 .........ppruxyyzzzz
(PID.TID 0000.0001)      5 ..........ijoswyzzzz
(PID.TID 0000.0001)      4 ............iotwyzzz
(PID.TID 0000.0001)      3 ..........g.imquwyzz
(PID.TID 0000.0001)      2 .......-bef..knqtvxz
(PID.TID 0000.0001)      1 ........-cegijlosvy+
(PID.TID 0000.0001) // =======================================================
(PID.TID 0000.0001) // END OF FIELD                                          =
(PID.TID 0000.0001) // =======================================================
(PID.TID 0000.0001) 
(PID.TID 0000.0001)  MDSREADFIELD: opening file: xx_theta.0000000000.001.001.data
(PID.TID 0000.0001)  MDSREADFIELD: opening file: xx_salt.0000000000.001.001.data
(PID.TID 0000.0001) // =======================================================
(PID.TID 0000.0001) // Model current state
(PID.TID 0000.0001) // =======================================================
(PID.TID 0000.0001) 
(PID.TID 0000.0001) // =======================================================
(PID.TID 0000.0001) // Begin MONITOR dynamic field statistics
(PID.TID 0000.0001) // =======================================================
(PID.TID 0000.0001) %MON time_tsnumber                =                     0
(PID.TID 0000.0001) %MON time_secondsf                =   0.0000000000000E+00
(PID.TID 0000.0001) %MON time_secondsi                =                     0
(PID.TID 0000.0001) %MON dynstat_eta_max              =   0.0000000000000E+00
(PID.TID 0000.0001) %MON dynstat_eta_min              =   0.0000000000000E+00
(PID.TID 0000.0001) %MON dynstat_eta_mean             =   0.0000000000000E+00
(PID.TID 0000.0001) %MON dynstat_eta_sd               =   0.0000000000000E+00
(PID.TID 0000.0001) %MON dynstat_eta_del2             =   0.0000000000000E+00
(PID.TID 0000.0001) %MON dynstat_uvel_max             =   0.0000000000000E+00
(PID.TID 0000.0001) %MON dynstat_uvel_min             =   0.0000000000000E+00
(PID.TID 0000.0001) %MON dynstat_uvel_mean            =   0.0000000000000E+00
(PID.TID 0000.0001) %MON dynstat_uvel_sd              =   0.0000000000000E+00
(PID.TID 0000.0001) %MON dynstat_uvel_del2            =   0.0000000000000E+00
(PID.TID 0000.0001) %MON dynstat_vvel_max             =   0.0000000000000E+00
(PID.TID 0000.0001) %MON dynstat_vvel_min             =   0.0000000000000E+00
(PID.TID 0000.0001) %MON dynstat_vvel_mean            =   0.0000000000000E+00
(PID.TID 0000.0001) %MON dynstat_vvel_sd              =   0.0000000000000E+00
(PID.TID 0000.0001) %MON dynstat_vvel_del2            =   0.0000000000000E+00
(PID.TID 0000.0001) %MON dynstat_wvel_max             =   0.0000000000000E+00
(PID.TID 0000.0001) %MON dynstat_wvel_min             =   0.0000000000000E+00
(PID.TID 0000.0001) %MON dynstat_wvel_mean            =   0.0000000000000E+00
(PID.TID 0000.0001) %MON dynstat_wvel_sd              =   0.0000000000000E+00
(PID.TID 0000.0001) %MON dynstat_wvel_del2            =   0.0000000000000E+00
(PID.TID 0000.0001) %MON dynstat_theta_max            =   1.3333076477051E+01
(PID.TID 0000.0001) %MON dynstat_theta_min            =  -1.4103618860245E+00
(PID.TID 0000.0001) %MON dynstat_theta_mean           =   3.1168426975828E+00
(PID.TID 0000.0001) %MON dynstat_theta_sd             =   1.4047681849177E+00
(PID.TID 0000.0001) %MON dynstat_theta_del2           =   9.7237468258508E-02
(PID.TID 0000.0001) %MON dynstat_salt_max             =   3.5450622558594E+01
(PID.TID 0000.0001) %MON dynstat_salt_min             =   3.0128698348999E+01
(PID.TID 0000.0001) %MON dynstat_salt_mean            =   3.4759355674691E+01
(PID.TID 0000.0001) %MON dynstat_salt_sd              =   4.4306214753982E-01
(PID.TID 0000.0001) %MON dynstat_salt_del2            =   3.8354629598638E-02
(PID.TID 0000.0001) %MON advcfl_uvel_max              =   0.0000000000000E+00
(PID.TID 0000.0001) %MON advcfl_vvel_max              =   0.0000000000000E+00
(PID.TID 0000.0001) %MON advcfl_wvel_max              =   0.0000000000000E+00
(PID.TID 0000.0001) %MON advcfl_W_hf_max              =   0.0000000000000E+00
(PID.TID 0000.0001) %MON ke_max                       =   0.0000000000000E+00
(PID.TID 0000.0001) %MON ke_mean                      =   0.0000000000000E+00
(PID.TID 0000.0001) %MON ke_volint                    =   0.0000000000000E+00
(PID.TID 0000.0001) %MON ke_volmean                   =   0.0000000000000E+00
(PID.TID 0000.0001) // =======================================================
(PID.TID 0000.0001) // End MONITOR dynamic field statistics
(PID.TID 0000.0001) // =======================================================
(PID.TID 0000.0001)  MDSREADFIELD: opening file: xx_atemp.0000000000.001.001.data
(PID.TID 0000.0001)  MDSREADFIELD: opening file: xx_atemp.0000000000.001.001.data
(PID.TID 0000.0001)  MDSREADFIELD: opening file: xx_aqh.0000000000.001.001.data
(PID.TID 0000.0001)  MDSREADFIELD: opening file: xx_aqh.0000000000.001.001.data
(PID.TID 0000.0001)  MDSREADFIELD: opening file: xx_uwind.0000000000.001.001.data
(PID.TID 0000.0001)  MDSREADFIELD: opening file: xx_uwind.0000000000.001.001.data
(PID.TID 0000.0001)  MDSREADFIELD: opening file: xx_vwind.0000000000.001.001.data
(PID.TID 0000.0001)  MDSREADFIELD: opening file: xx_vwind.0000000000.001.001.data
(PID.TID 0000.0001) 
(PID.TID 0000.0001)  exf_GetFFieldsRec: first, changed, fac:   T   F   0.50000000E+00
(PID.TID 0000.0001)  exf_GetFFieldsRec:      count0, count1:   1   2
(PID.TID 0000.0001) 
(PID.TID 0000.0001)  MDSREADFIELD: opening global file: u10m.labsea79
(PID.TID 0000.0001)  MDSREADFIELD: opening global file: u10m.labsea79
(PID.TID 0000.0001) 
(PID.TID 0000.0001)  exf_GetFFieldsRec: first, changed, fac:   T   F   0.50000000E+00
(PID.TID 0000.0001)  exf_GetFFieldsRec:      count0, count1:   1   2
(PID.TID 0000.0001) 
(PID.TID 0000.0001)  MDSREADFIELD: opening global file: v10m.labsea79
(PID.TID 0000.0001)  MDSREADFIELD: opening global file: v10m.labsea79
(PID.TID 0000.0001)  MDSREADFIELD: opening file: xx_uwind.0000000000.001.001.data
(PID.TID 0000.0001)  MDSREADFIELD: opening file: xx_uwind.0000000000.001.001.data
(PID.TID 0000.0001)  MDSREADFIELD: opening file: xx_vwind.0000000000.001.001.data
(PID.TID 0000.0001)  MDSREADFIELD: opening file: xx_vwind.0000000000.001.001.data
(PID.TID 0000.0001) 
(PID.TID 0000.0001)  exf_GetFFieldsRec: first, changed, fac:   T   F   0.50000000E+00
(PID.TID 0000.0001)  exf_GetFFieldsRec:      count0, count1:   1   2
(PID.TID 0000.0001) 
(PID.TID 0000.0001)  MDSREADFIELD: opening global file: tair.labsea1979
(PID.TID 0000.0001)  MDSREADFIELD: opening global file: tair.labsea1979
(PID.TID 0000.0001) 
(PID.TID 0000.0001)  exf_GetFFieldsRec: first, changed, fac:   T   F   0.50000000E+00
(PID.TID 0000.0001)  exf_GetFFieldsRec:      count0, count1:   1   2
(PID.TID 0000.0001) 
(PID.TID 0000.0001)  MDSREADFIELD: opening global file: qa.labsea1979
(PID.TID 0000.0001)  MDSREADFIELD: opening global file: qa.labsea1979
(PID.TID 0000.0001) 
(PID.TID 0000.0001)  exf_GetFFieldsRec: first, changed, fac:   T   F   0.50000000E+00
(PID.TID 0000.0001)  exf_GetFFieldsRec:      count0, count1:   1   2
(PID.TID 0000.0001) 
(PID.TID 0000.0001)  MDSREADFIELD: opening global file: prate.labsea1979
(PID.TID 0000.0001)  MDSREADFIELD: opening global file: prate.labsea1979
(PID.TID 0000.0001)  MDSREADFIELD: opening file: xx_atemp.0000000000.001.001.data
(PID.TID 0000.0001)  MDSREADFIELD: opening file: xx_atemp.0000000000.001.001.data
(PID.TID 0000.0001)  MDSREADFIELD: opening file: xx_aqh.0000000000.001.001.data
(PID.TID 0000.0001)  MDSREADFIELD: opening file: xx_aqh.0000000000.001.001.data
(PID.TID 0000.0001) 
(PID.TID 0000.0001)  exf_GetFFieldsRec: first, changed, fac:   T   F   0.50000000E+00
(PID.TID 0000.0001)  exf_GetFFieldsRec:      count0, count1:   1   2
(PID.TID 0000.0001) 
(PID.TID 0000.0001)  MDSREADFIELD: opening global file: fsh.labsea1979
(PID.TID 0000.0001)  MDSREADFIELD: opening global file: fsh.labsea1979
(PID.TID 0000.0001) 
(PID.TID 0000.0001)  exf_GetFFieldsRec: first, changed, fac:   T   F   0.50000000E+00
(PID.TID 0000.0001)  exf_GetFFieldsRec:      count0, count1:   1   2
(PID.TID 0000.0001) 
(PID.TID 0000.0001)  MDSREADFIELD: opening global file: flo.labsea1979
(PID.TID 0000.0001)  MDSREADFIELD: opening global file: flo.labsea1979
 pathei: in check_exp: iter/time/rec/yprefix  0  0. 1 kf_
 pathei: in check_exp: date   0
 pathei: in check_exp: theta  -1.96
 pathei: in check_exp: salt    32.5598145
 pathei: in check_exp: uvel    0.
 pathei: in check_exp: vvel    0.
 pathei: in check_exp: qnet    0.
 pathei: in check_exp: empmr  -0.000153695737
 pathei: in check_exp: fu      0.0119642461
 pathei: in check_exp: fv     -0.0250166478
 cg2d: Sum(rhs),rhsMax =   1.95590071916385E-16  1.00807802167630E+00
(PID.TID 0000.0001)                    cg2d_init_res =    1.61521300655486E+00
(PID.TID 0000.0001)                       cg2d_iters =    47
(PID.TID 0000.0001)                         cg2d_res =    5.70138941994743E-14
(PID.TID 0000.0001) 
(PID.TID 0000.0001)  cal_TimeStamp: iter =          1 time =  0.36000000E+04
(PID.TID 0000.0001)                 date =   19790101       10000
(PID.TID 0000.0001) 
(PID.TID 0000.0001) 
(PID.TID 0000.0001)  exf_GetFFieldsRec: first, changed, fac:   F   F   0.49863388E+00
(PID.TID 0000.0001)  exf_GetFFieldsRec:      count0, count1:   1   2
(PID.TID 0000.0001) 
(PID.TID 0000.0001) 
(PID.TID 0000.0001)  exf_GetFFieldsRec: first, changed, fac:   F   F   0.49863388E+00
(PID.TID 0000.0001)  exf_GetFFieldsRec:      count0, count1:   1   2
(PID.TID 0000.0001) 
(PID.TID 0000.0001)  MDSREADFIELD: opening file: xx_uwind.0000000000.001.001.data
(PID.TID 0000.0001)  MDSREADFIELD: opening file: xx_uwind.0000000000.001.001.data
(PID.TID 0000.0001)  MDSREADFIELD: opening file: xx_vwind.0000000000.001.001.data
(PID.TID 0000.0001)  MDSREADFIELD: opening file: xx_vwind.0000000000.001.001.data
(PID.TID 0000.0001) 
(PID.TID 0000.0001)  exf_GetFFieldsRec: first, changed, fac:   F   F   0.49863388E+00
(PID.TID 0000.0001)  exf_GetFFieldsRec:      count0, count1:   1   2
(PID.TID 0000.0001) 
(PID.TID 0000.0001) 
(PID.TID 0000.0001)  exf_GetFFieldsRec: first, changed, fac:   F   F   0.49863388E+00
(PID.TID 0000.0001)  exf_GetFFieldsRec:      count0, count1:   1   2
(PID.TID 0000.0001) 
(PID.TID 0000.0001) 
(PID.TID 0000.0001)  exf_GetFFieldsRec: first, changed, fac:   F   F   0.49863388E+00
(PID.TID 0000.0001)  exf_GetFFieldsRec:      count0, count1:   1   2
(PID.TID 0000.0001) 
(PID.TID 0000.0001)  MDSREADFIELD: opening file: xx_atemp.0000000000.001.001.data
(PID.TID 0000.0001)  MDSREADFIELD: opening file: xx_atemp.0000000000.001.001.data
(PID.TID 0000.0001)  MDSREADFIELD: opening file: xx_aqh.0000000000.001.001.data
(PID.TID 0000.0001)  MDSREADFIELD: opening file: xx_aqh.0000000000.001.001.data
(PID.TID 0000.0001) 
(PID.TID 0000.0001)  exf_GetFFieldsRec: first, changed, fac:   F   F   0.49863388E+00
(PID.TID 0000.0001)  exf_GetFFieldsRec:      count0, count1:   1   2
(PID.TID 0000.0001) 
(PID.TID 0000.0001) 
(PID.TID 0000.0001)  exf_GetFFieldsRec: first, changed, fac:   F   F   0.49863388E+00
(PID.TID 0000.0001)  exf_GetFFieldsRec:      count0, count1:   1   2
(PID.TID 0000.0001) 
 cg2d: Sum(rhs),rhsMax =   7.37474317724640E-16  1.23585471329616E+00
(PID.TID 0000.0001)                    cg2d_init_res =    3.48544561456594E-01
(PID.TID 0000.0001)                       cg2d_iters =    45
(PID.TID 0000.0001)                         cg2d_res =    6.49477568912283E-14
(PID.TID 0000.0001) 
(PID.TID 0000.0001)  cal_TimeStamp: iter =          2 time =  0.72000000E+04
(PID.TID 0000.0001)                 date =   19790101       20000
(PID.TID 0000.0001) 
(PID.TID 0000.0001) 
(PID.TID 0000.0001)  exf_GetFFieldsRec: first, changed, fac:   F   F   0.49726776E+00
(PID.TID 0000.0001)  exf_GetFFieldsRec:      count0, count1:   1   2
(PID.TID 0000.0001) 
(PID.TID 0000.0001) 
(PID.TID 0000.0001)  exf_GetFFieldsRec: first, changed, fac:   F   F   0.49726776E+00
(PID.TID 0000.0001)  exf_GetFFieldsRec:      count0, count1:   1   2
(PID.TID 0000.0001) 
(PID.TID 0000.0001)  MDSREADFIELD: opening file: xx_uwind.0000000000.001.001.data
(PID.TID 0000.0001)  MDSREADFIELD: opening file: xx_uwind.0000000000.001.001.data
(PID.TID 0000.0001)  MDSREADFIELD: opening file: xx_vwind.0000000000.001.001.data
(PID.TID 0000.0001)  MDSREADFIELD: opening file: xx_vwind.0000000000.001.001.data
(PID.TID 0000.0001) 
(PID.TID 0000.0001)  exf_GetFFieldsRec: first, changed, fac:   F   F   0.49726776E+00
(PID.TID 0000.0001)  exf_GetFFieldsRec:      count0, count1:   1   2
(PID.TID 0000.0001) 
(PID.TID 0000.0001) 
(PID.TID 0000.0001)  exf_GetFFieldsRec: first, changed, fac:   F   F   0.49726776E+00
(PID.TID 0000.0001)  exf_GetFFieldsRec:      count0, count1:   1   2
(PID.TID 0000.0001) 
(PID.TID 0000.0001) 
(PID.TID 0000.0001)  exf_GetFFieldsRec: first, changed, fac:   F   F   0.49726776E+00
(PID.TID 0000.0001)  exf_GetFFieldsRec:      count0, count1:   1   2
(PID.TID 0000.0001) 
(PID.TID 0000.0001)  MDSREADFIELD: opening file: xx_atemp.0000000000.001.001.data
(PID.TID 0000.0001)  MDSREADFIELD: opening file: xx_atemp.0000000000.001.001.data
(PID.TID 0000.0001)  MDSREADFIELD: opening file: xx_aqh.0000000000.001.001.data
(PID.TID 0000.0001)  MDSREADFIELD: opening file: xx_aqh.0000000000.001.001.data
(PID.TID 0000.0001) 
(PID.TID 0000.0001)  exf_GetFFieldsRec: first, changed, fac:   F   F   0.49726776E+00
(PID.TID 0000.0001)  exf_GetFFieldsRec:      count0, count1:   1   2
(PID.TID 0000.0001) 
(PID.TID 0000.0001) 
(PID.TID 0000.0001)  exf_GetFFieldsRec: first, changed, fac:   F   F   0.49726776E+00
(PID.TID 0000.0001)  exf_GetFFieldsRec:      count0, count1:   1   2
(PID.TID 0000.0001) 
 cg2d: Sum(rhs),rhsMax =   5.74453679069720E-15  1.25438452343296E+00
(PID.TID 0000.0001)                    cg2d_init_res =    2.36078257968892E-01
(PID.TID 0000.0001)                       cg2d_iters =    45
(PID.TID 0000.0001)                         cg2d_res =    6.62546240856788E-14
(PID.TID 0000.0001) 
(PID.TID 0000.0001)  cal_TimeStamp: iter =          3 time =  0.10800000E+05
(PID.TID 0000.0001)                 date =   19790101       30000
(PID.TID 0000.0001) 
(PID.TID 0000.0001) 
(PID.TID 0000.0001)  exf_GetFFieldsRec: first, changed, fac:   F   F   0.49590164E+00
(PID.TID 0000.0001)  exf_GetFFieldsRec:      count0, count1:   1   2
(PID.TID 0000.0001) 
(PID.TID 0000.0001) 
(PID.TID 0000.0001)  exf_GetFFieldsRec: first, changed, fac:   F   F   0.49590164E+00
(PID.TID 0000.0001)  exf_GetFFieldsRec:      count0, count1:   1   2
(PID.TID 0000.0001) 
(PID.TID 0000.0001)  MDSREADFIELD: opening file: xx_uwind.0000000000.001.001.data
(PID.TID 0000.0001)  MDSREADFIELD: opening file: xx_uwind.0000000000.001.001.data
(PID.TID 0000.0001)  MDSREADFIELD: opening file: xx_vwind.0000000000.001.001.data
(PID.TID 0000.0001)  MDSREADFIELD: opening file: xx_vwind.0000000000.001.001.data
(PID.TID 0000.0001) 
(PID.TID 0000.0001)  exf_GetFFieldsRec: first, changed, fac:   F   F   0.49590164E+00
(PID.TID 0000.0001)  exf_GetFFieldsRec:      count0, count1:   1   2
(PID.TID 0000.0001) 
(PID.TID 0000.0001) 
(PID.TID 0000.0001)  exf_GetFFieldsRec: first, changed, fac:   F   F   0.49590164E+00
(PID.TID 0000.0001)  exf_GetFFieldsRec:      count0, count1:   1   2
(PID.TID 0000.0001) 
(PID.TID 0000.0001) 
(PID.TID 0000.0001)  exf_GetFFieldsRec: first, changed, fac:   F   F   0.49590164E+00
(PID.TID 0000.0001)  exf_GetFFieldsRec:      count0, count1:   1   2
(PID.TID 0000.0001) 
(PID.TID 0000.0001)  MDSREADFIELD: opening file: xx_atemp.0000000000.001.001.data
(PID.TID 0000.0001)  MDSREADFIELD: opening file: xx_atemp.0000000000.001.001.data
(PID.TID 0000.0001)  MDSREADFIELD: opening file: xx_aqh.0000000000.001.001.data
(PID.TID 0000.0001)  MDSREADFIELD: opening file: xx_aqh.0000000000.001.001.data
(PID.TID 0000.0001) 
(PID.TID 0000.0001)  exf_GetFFieldsRec: first, changed, fac:   F   F   0.49590164E+00
(PID.TID 0000.0001)  exf_GetFFieldsRec:      count0, count1:   1   2
(PID.TID 0000.0001) 
(PID.TID 0000.0001) 
(PID.TID 0000.0001)  exf_GetFFieldsRec: first, changed, fac:   F   F   0.49590164E+00
(PID.TID 0000.0001)  exf_GetFFieldsRec:      count0, count1:   1   2
(PID.TID 0000.0001) 
 cg2d: Sum(rhs),rhsMax =   2.13978140761739E-15  1.25494322187395E+00
(PID.TID 0000.0001)                    cg2d_init_res =    1.82553143604970E-01
(PID.TID 0000.0001)                       cg2d_iters =    45
(PID.TID 0000.0001)                         cg2d_res =    5.12415148257220E-14
(PID.TID 0000.0001) 
(PID.TID 0000.0001)  cal_TimeStamp: iter =          4 time =  0.14400000E+05
(PID.TID 0000.0001)                 date =   19790101       40000
(PID.TID 0000.0001) 
(PID.TID 0000.0001)  MDSREADFIELD: opening file: tbar.0000000000.001.001.data
(PID.TID 0000.0001)  MDSREADFIELD: opening global file: labsea_SST_fields
(PID.TID 0000.0001)  MDSREADFIELD: opening file: tbar.0000000000.001.001.data
(PID.TID 0000.0001)  MDSREADFIELD: opening global file: labsea_Lev.ptmp
(PID.TID 0000.0001)  MDSREADFIELD: opening file: sbar.0000000000.001.001.data
(PID.TID 0000.0001)  MDSREADFIELD: opening global file: labsea_Lev.salt
(PID.TID 0000.0001)  MDSREADFIELD: opening file: psbar.0000000000.001.001.data
(PID.TID 0000.0001)  MDSREADFIELD: opening global file: labsea_TP_mean

  cost_ssh: offset_sum =   71.

(PID.TID 0000.0001)  MDSREADFIELD: opening file: psbar.0000000000.001.001.data
(PID.TID 0000.0001)  MDSREADFIELD: opening global file: labsea_TP_fields
(PID.TID 0000.0001)  MDSREADFIELD: opening global file: labsea_ERS_fields
(PID.TID 0000.0001)  MDSREADFIELD: opening file: tbar.0000000000.001.001.data
(PID.TID 0000.0001)  MDSREADFIELD: opening global file: labsea_SST_fields
  --> objf_temp(bi,bj)    =  913.322487
  --> objf_salt(bi,bj)    =  293.144573
  --> objf_temp0(bi,bj)   =  0.
  --> objf_salt0(bi,bj)   =  0.
  --> objf_sst(bi,bj)     =  201.662552
  --> objf_sss(bi,bj)     =  0.
  --> objf_h(bi,bj)       =  0.
  --> objf_hmean          =  0.0266992949
  --> objf_tauu(bi,bj)    =  0.
  --> objf_tauum(bi,bj)   =  0.
  --> objf_tauv(bi,bj)    =  0.
  --> objf_tauvm(bi,bj)   =  0.
  --> objf_hflux(bi,bj)   =  0.
  --> objf_hflux(bi,bj)   =  0.
  --> objf_hflux(bi,bj)   =  0.
  --> objf_sflux(bi,bj)   =  0.
  --> objf_sflux(bi,bj)   =  0.
  --> objf_sflux(bi,bj)   =  0.
  --> objf_atl(bi,bj)     =  0.
  --> objf_ctdt(bi,bj)    =  0.
  --> objf_ctds(bi,bj)    =  0.
  --> objf_xbt(bi,bj)     =  0.
  --> objf_argot(bi,bj)   =  0.
  --> objf_argos(bi,bj)   =  0.
  --> objf_drift(bi,bj)   =  0.
  --> objf_tdrift(bi,bj)  =  0.
  --> objf_sdrift(bi,bj)  =  0.
  --> objf_wdrift(bi,bj)  =  0.
  --> objf_scatx(bi,bj)   =  0.
  --> objf_scaty(bi,bj)   =  0.
  --> objf_scatxm(bi,bj)  =  0.
  --> objf_scatym(bi,bj)  =  0.
  --> objf_uwind(bi,bj)   =  0.
  --> objf_vwind(bi,bj)   =  0.
  --> objf_atemp(bi,bj)   =  9.E-08
  --> objf_aqh(bi,bj)     =  0.
  --> objf_obcsn(bi,bj)   =  0.
  --> objf_obcss(bi,bj)   =  0.
  --> objf_obcsw(bi,bj)   =  0.
  --> objf_obcse(bi,bj)   =  0.
  --> objf_hmean           =  0.0266992949
  --> fc               =  1408.15631
(PID.TID 0000.0001)  MDSREADFIELD: opening file: xx_atemp.0000000000.001.001.data
(PID.TID 0000.0001)  MDSREADFIELD: opening file: xx_atemp.0000000000.001.001.data
(PID.TID 0000.0001) 
(PID.TID 0000.0001)  cal_TimeStamp: iter =          0 time =  0.00000000E+00
(PID.TID 0000.0001)                 date =   19790101           0
(PID.TID 0000.0001) 
(PID.TID 0000.0001) %MON kefCori_max                  =   1.4171638136144E-04
(PID.TID 0000.0001) %MON kefCori_min                  =   1.0637108408252E-04
(PID.TID 0000.0001) %MON kefCori_mean                 =   1.2676338344768E-04
(PID.TID 0000.0001) %MON kefCori_sd                   =   1.1001401444773E-05
(PID.TID 0000.0001) %MON kefCoriG_max                 =   1.4112379284621E-04
(PID.TID 0000.0001) %MON kefCoriG_min                 =   1.0462373297123E-04
(PID.TID 0000.0001) %MON kefCoriG_mean                =   1.2556776212280E-04
(PID.TID 0000.0001) %MON kefCoriG_sd                  =   1.1352720951562E-05
(PID.TID 0000.0001) // CG2D normalisation factor =          0.1609493984093919507084164E-03
(PID.TID 0000.0001) 
(PID.TID 0000.0001)  MDSREADFIELD: opening global file: LevCli_temp.labsea
(PID.TID 0000.0001) // =======================================================
(PID.TID 0000.0001) // Field Initial Temperature at iteration          1
(PID.TID 0000.0001) // CMIN =          9.205863475799561E-01
(PID.TID 0000.0001) // CMAX =          1.333307647705078E+01
(PID.TID 0000.0001) // CINT =          4.597218566470676E-01
(PID.TID 0000.0001) // SYMBOLS (CMIN->CMAX): -abcdefghijklmnopqrstuvwxyz+
(PID.TID 0000.0001) //                  0.0: .
(PID.TID 0000.0001) // RANGE I (Lo:Hi:Step):(   1:  20:   1)
(PID.TID 0000.0001) // RANGE J (Lo:Hi:Step):(  16:   1:  -1)
(PID.TID 0000.0001) // RANGE K (Lo:Hi:Step):(   1:   1:   1)
(PID.TID 0000.0001) // =======================================================
(PID.TID 0000.0001) K =   1
(PID.TID 0000.0001)                I=10      I=20
(PID.TID 0000.0001) |--J--|123456789|123456789|
(PID.TID 0000.0001)     16 .----...............
(PID.TID 0000.0001)     15 aabaaaaaaaa.........
(PID.TID 0000.0001)     14 .ccccccbbbbc........
(PID.TID 0000.0001)     13 ....dddddddd........
(PID.TID 0000.0001)     12 ......dcdddddd......
(PID.TID 0000.0001)     11 ........cccdd.......
(PID.TID 0000.0001)     10 .......bbcdddd......
(PID.TID 0000.0001)      9 .......cdeeffff....j
(PID.TID 0000.0001)      8 .....ccdefgghhggh..k
(PID.TID 0000.0001)      7 ......d.fghiiiiiijkl
(PID.TID 0000.0001)      6 .........ghhijjjkklm
(PID.TID 0000.0001)      5 ..........hhhijklmnn
(PID.TID 0000.0001)      4 ............ghikmopq
(PID.TID 0000.0001)      3 ..........k.hhiknqsu
(PID.TID 0000.0001)      2 .......oonm..ijknqux
(PID.TID 0000.0001)      1 ........qponlkklosw+
(PID.TID 0000.0001) // =======================================================
(PID.TID 0000.0001) // END OF FIELD                                          =
(PID.TID 0000.0001) // =======================================================
(PID.TID 0000.0001) 
(PID.TID 0000.0001)  MDSREADFIELD: opening global file: LevCli_salt.labsea
(PID.TID 0000.0001) // =======================================================
(PID.TID 0000.0001) // Field Initial Salinity at iteration          1
(PID.TID 0000.0001) // CMIN =          3.012869834899902E+01
(PID.TID 0000.0001) // CMAX =          3.487366104125977E+01
(PID.TID 0000.0001) // CINT =          1.757393589726201E-01
(PID.TID 0000.0001) // SYMBOLS (CMIN->CMAX): -abcdefghijklmnopqrstuvwxyz+
(PID.TID 0000.0001) //                  0.0: .
(PID.TID 0000.0001) // RANGE I (Lo:Hi:Step):(   1:  20:   1)
(PID.TID 0000.0001) // RANGE J (Lo:Hi:Step):(  16:   1:  -1)
(PID.TID 0000.0001) // RANGE K (Lo:Hi:Step):(   1:   1:   1)
(PID.TID 0000.0001) // =======================================================
(PID.TID 0000.0001) K =   1
(PID.TID 0000.0001)                I=10      I=20
(PID.TID 0000.0001) |--J--|123456789|123456789|
(PID.TID 0000.0001)     16 .nnos...............
(PID.TID 0000.0001)     15 lnoppppppol.........
(PID.TID 0000.0001)     14 .nponmllllmn........
(PID.TID 0000.0001)     13 ....ljhijkmo........
(PID.TID 0000.0001)     12 ......ghjlmors......
(PID.TID 0000.0001)     11 ........jmnpr.......
(PID.TID 0000.0001)     10 .......jlnpqrq......
(PID.TID 0000.0001)      9 .......noqsttts....w
(PID.TID 0000.0001)      8 .....jlnpsuvwwutu..x
(PID.TID 0000.0001)      7 ......j.rruwxyxxwxxy
(PID.TID 0000.0001)      6 .........ppruxyyzzzz
(PID.TID 0000.0001)      5 ..........ijoswyzzzz
(PID.TID 0000.0001)      4 ............iotwyzzz
(PID.TID 0000.0001)      3 ..........g.imquwyzz
(PID.TID 0000.0001)      2 .......-bef..knqtvxz
(PID.TID 0000.0001)      1 ........-cegijlosvy+
(PID.TID 0000.0001) // =======================================================
(PID.TID 0000.0001) // END OF FIELD                                          =
(PID.TID 0000.0001) // =======================================================
(PID.TID 0000.0001) 
(PID.TID 0000.0001)  MDSREADFIELD: opening file: xx_theta.0000000000.001.001.data
(PID.TID 0000.0001)  MDSREADFIELD: opening file: xx_salt.0000000000.001.001.data
(PID.TID 0000.0001) // =======================================================
(PID.TID 0000.0001) // Model current state
(PID.TID 0000.0001) // =======================================================
(PID.TID 0000.0001) 
(PID.TID 0000.0001) // =======================================================
(PID.TID 0000.0001) // Begin MONITOR dynamic field statistics
(PID.TID 0000.0001) // =======================================================
(PID.TID 0000.0001) %MON time_tsnumber                =                     0
(PID.TID 0000.0001) %MON time_secondsf                =   0.0000000000000E+00
(PID.TID 0000.0001) %MON time_secondsi                =                     0
(PID.TID 0000.0001) %MON dynstat_eta_max              =   0.0000000000000E+00
(PID.TID 0000.0001) %MON dynstat_eta_min              =   0.0000000000000E+00
(PID.TID 0000.0001) %MON dynstat_eta_mean             =   0.0000000000000E+00
(PID.TID 0000.0001) %MON dynstat_eta_sd               =   0.0000000000000E+00
(PID.TID 0000.0001) %MON dynstat_eta_del2             =   0.0000000000000E+00
(PID.TID 0000.0001) %MON dynstat_uvel_max             =   0.0000000000000E+00
(PID.TID 0000.0001) %MON dynstat_uvel_min             =   0.0000000000000E+00
(PID.TID 0000.0001) %MON dynstat_uvel_mean            =   0.0000000000000E+00
(PID.TID 0000.0001) %MON dynstat_uvel_sd              =   0.0000000000000E+00
(PID.TID 0000.0001) %MON dynstat_uvel_del2            =   0.0000000000000E+00
(PID.TID 0000.0001) %MON dynstat_vvel_max             =   0.0000000000000E+00
(PID.TID 0000.0001) %MON dynstat_vvel_min             =   0.0000000000000E+00
(PID.TID 0000.0001) %MON dynstat_vvel_mean            =   0.0000000000000E+00
(PID.TID 0000.0001) %MON dynstat_vvel_sd              =   0.0000000000000E+00
(PID.TID 0000.0001) %MON dynstat_vvel_del2            =   0.0000000000000E+00
(PID.TID 0000.0001) %MON dynstat_wvel_max             =   0.0000000000000E+00
(PID.TID 0000.0001) %MON dynstat_wvel_min             =   0.0000000000000E+00
(PID.TID 0000.0001) %MON dynstat_wvel_mean            =   0.0000000000000E+00
(PID.TID 0000.0001) %MON dynstat_wvel_sd              =   0.0000000000000E+00
(PID.TID 0000.0001) %MON dynstat_wvel_del2            =   0.0000000000000E+00
(PID.TID 0000.0001) %MON dynstat_theta_max            =   1.3333076477051E+01
(PID.TID 0000.0001) %MON dynstat_theta_min            =  -1.4103618860245E+00
(PID.TID 0000.0001) %MON dynstat_theta_mean           =   3.1168426975828E+00
(PID.TID 0000.0001) %MON dynstat_theta_sd             =   1.4047681849177E+00
(PID.TID 0000.0001) %MON dynstat_theta_del2           =   9.7237468258508E-02
(PID.TID 0000.0001) %MON dynstat_salt_max             =   3.5450622558594E+01
(PID.TID 0000.0001) %MON dynstat_salt_min             =   3.0128698348999E+01
(PID.TID 0000.0001) %MON dynstat_salt_mean            =   3.4759355674691E+01
(PID.TID 0000.0001) %MON dynstat_salt_sd              =   4.4306214753982E-01
(PID.TID 0000.0001) %MON dynstat_salt_del2            =   3.8354629598638E-02
(PID.TID 0000.0001) %MON advcfl_uvel_max              =   0.0000000000000E+00
(PID.TID 0000.0001) %MON advcfl_vvel_max              =   0.0000000000000E+00
(PID.TID 0000.0001) %MON advcfl_wvel_max              =   0.0000000000000E+00
(PID.TID 0000.0001) %MON advcfl_W_hf_max              =   0.0000000000000E+00
(PID.TID 0000.0001) %MON ke_max                       =   0.0000000000000E+00
(PID.TID 0000.0001) %MON ke_mean                      =   0.0000000000000E+00
(PID.TID 0000.0001) %MON ke_volint                    =   0.0000000000000E+00
(PID.TID 0000.0001) %MON ke_volmean                   =   0.0000000000000E+00
(PID.TID 0000.0001) // =======================================================
(PID.TID 0000.0001) // End MONITOR dynamic field statistics
(PID.TID 0000.0001) // =======================================================
(PID.TID 0000.0001)  MDSREADFIELD: opening file: xx_atemp.0000000000.001.001.data
(PID.TID 0000.0001)  MDSREADFIELD: opening file: xx_atemp.0000000000.001.001.data
(PID.TID 0000.0001)  MDSREADFIELD: opening file: xx_aqh.0000000000.001.001.data
(PID.TID 0000.0001)  MDSREADFIELD: opening file: xx_aqh.0000000000.001.001.data
(PID.TID 0000.0001)  MDSREADFIELD: opening file: xx_uwind.0000000000.001.001.data
(PID.TID 0000.0001)  MDSREADFIELD: opening file: xx_uwind.0000000000.001.001.data
(PID.TID 0000.0001)  MDSREADFIELD: opening file: xx_vwind.0000000000.001.001.data
(PID.TID 0000.0001)  MDSREADFIELD: opening file: xx_vwind.0000000000.001.001.data
(PID.TID 0000.0001) 
(PID.TID 0000.0001)  exf_GetFFieldsRec: first, changed, fac:   T   F   0.50000000E+00
(PID.TID 0000.0001)  exf_GetFFieldsRec:      count0, count1:   1   2
(PID.TID 0000.0001) 
(PID.TID 0000.0001)  MDSREADFIELD: opening global file: u10m.labsea79
(PID.TID 0000.0001)  MDSREADFIELD: opening global file: u10m.labsea79
(PID.TID 0000.0001) 
(PID.TID 0000.0001)  exf_GetFFieldsRec: first, changed, fac:   T   F   0.50000000E+00
(PID.TID 0000.0001)  exf_GetFFieldsRec:      count0, count1:   1   2
(PID.TID 0000.0001) 
(PID.TID 0000.0001)  MDSREADFIELD: opening global file: v10m.labsea79
(PID.TID 0000.0001)  MDSREADFIELD: opening global file: v10m.labsea79
(PID.TID 0000.0001)  MDSREADFIELD: opening file: xx_uwind.0000000000.001.001.data
(PID.TID 0000.0001)  MDSREADFIELD: opening file: xx_uwind.0000000000.001.001.data
(PID.TID 0000.0001)  MDSREADFIELD: opening file: xx_vwind.0000000000.001.001.data
(PID.TID 0000.0001)  MDSREADFIELD: opening file: xx_vwind.0000000000.001.001.data
(PID.TID 0000.0001) 
(PID.TID 0000.0001)  exf_GetFFieldsRec: first, changed, fac:   T   F   0.50000000E+00
(PID.TID 0000.0001)  exf_GetFFieldsRec:      count0, count1:   1   2
(PID.TID 0000.0001) 
(PID.TID 0000.0001)  MDSREADFIELD: opening global file: tair.labsea1979
(PID.TID 0000.0001)  MDSREADFIELD: opening global file: tair.labsea1979
(PID.TID 0000.0001) 
(PID.TID 0000.0001)  exf_GetFFieldsRec: first, changed, fac:   T   F   0.50000000E+00
(PID.TID 0000.0001)  exf_GetFFieldsRec:      count0, count1:   1   2
(PID.TID 0000.0001) 
(PID.TID 0000.0001)  MDSREADFIELD: opening global file: qa.labsea1979
(PID.TID 0000.0001)  MDSREADFIELD: opening global file: qa.labsea1979
(PID.TID 0000.0001) 
(PID.TID 0000.0001)  exf_GetFFieldsRec: first, changed, fac:   T   F   0.50000000E+00
(PID.TID 0000.0001)  exf_GetFFieldsRec:      count0, count1:   1   2
(PID.TID 0000.0001) 
(PID.TID 0000.0001)  MDSREADFIELD: opening global file: prate.labsea1979
(PID.TID 0000.0001)  MDSREADFIELD: opening global file: prate.labsea1979
(PID.TID 0000.0001)  MDSREADFIELD: opening file: xx_atemp.0000000000.001.001.data
(PID.TID 0000.0001)  MDSREADFIELD: opening file: xx_atemp.0000000000.001.001.data
(PID.TID 0000.0001)  MDSREADFIELD: opening file: xx_aqh.0000000000.001.001.data
(PID.TID 0000.0001)  MDSREADFIELD: opening file: xx_aqh.0000000000.001.001.data
(PID.TID 0000.0001) 
(PID.TID 0000.0001)  exf_GetFFieldsRec: first, changed, fac:   T   F   0.50000000E+00
(PID.TID 0000.0001)  exf_GetFFieldsRec:      count0, count1:   1   2
(PID.TID 0000.0001) 
(PID.TID 0000.0001)  MDSREADFIELD: opening global file: fsh.labsea1979
(PID.TID 0000.0001)  MDSREADFIELD: opening global file: fsh.labsea1979
(PID.TID 0000.0001) 
(PID.TID 0000.0001)  exf_GetFFieldsRec: first, changed, fac:   T   F   0.50000000E+00
(PID.TID 0000.0001)  exf_GetFFieldsRec:      count0, count1:   1   2
(PID.TID 0000.0001) 
(PID.TID 0000.0001)  MDSREADFIELD: opening global file: flo.labsea1979
(PID.TID 0000.0001)  MDSREADFIELD: opening global file: flo.labsea1979
 pathei: in check_exp: iter/time/rec/yprefix  0  0. 1 kf_
 pathei: in check_exp: date   0
 pathei: in check_exp: theta  -1.96
 pathei: in check_exp: salt    32.5598145
 pathei: in check_exp: uvel    0.
 pathei: in check_exp: vvel    0.
 pathei: in check_exp: qnet    0.
 pathei: in check_exp: empmr  -0.000153695737
 pathei: in check_exp: fu      0.0119642461
 pathei: in check_exp: fv     -0.0250166478
 cg2d: Sum(rhs),rhsMax =   1.95590071916385E-16  1.00807802167630E+00
(PID.TID 0000.0001)                    cg2d_init_res =    1.61521300655486E+00
(PID.TID 0000.0001)                       cg2d_iters =    47
(PID.TID 0000.0001)                         cg2d_res =    5.70138941994743E-14
(PID.TID 0000.0001) 
(PID.TID 0000.0001)  cal_TimeStamp: iter =          1 time =  0.36000000E+04
(PID.TID 0000.0001)                 date =   19790101       10000
(PID.TID 0000.0001) 
(PID.TID 0000.0001) 
(PID.TID 0000.0001)  exf_GetFFieldsRec: first, changed, fac:   F   F   0.49863388E+00
(PID.TID 0000.0001)  exf_GetFFieldsRec:      count0, count1:   1   2
(PID.TID 0000.0001) 
(PID.TID 0000.0001) 
(PID.TID 0000.0001)  exf_GetFFieldsRec: first, changed, fac:   F   F   0.49863388E+00
(PID.TID 0000.0001)  exf_GetFFieldsRec:      count0, count1:   1   2
(PID.TID 0000.0001) 
(PID.TID 0000.0001)  MDSREADFIELD: opening file: xx_uwind.0000000000.001.001.data
(PID.TID 0000.0001)  MDSREADFIELD: opening file: xx_uwind.0000000000.001.001.data
(PID.TID 0000.0001)  MDSREADFIELD: opening file: xx_vwind.0000000000.001.001.data
(PID.TID 0000.0001)  MDSREADFIELD: opening file: xx_vwind.0000000000.001.001.data
(PID.TID 0000.0001) 
(PID.TID 0000.0001)  exf_GetFFieldsRec: first, changed, fac:   F   F   0.49863388E+00
(PID.TID 0000.0001)  exf_GetFFieldsRec:      count0, count1:   1   2
(PID.TID 0000.0001) 
(PID.TID 0000.0001) 
(PID.TID 0000.0001)  exf_GetFFieldsRec: first, changed, fac:   F   F   0.49863388E+00
(PID.TID 0000.0001)  exf_GetFFieldsRec:      count0, count1:   1   2
(PID.TID 0000.0001) 
(PID.TID 0000.0001) 
(PID.TID 0000.0001)  exf_GetFFieldsRec: first, changed, fac:   F   F   0.49863388E+00
(PID.TID 0000.0001)  exf_GetFFieldsRec:      count0, count1:   1   2
(PID.TID 0000.0001) 
(PID.TID 0000.0001)  MDSREADFIELD: opening file: xx_atemp.0000000000.001.001.data
(PID.TID 0000.0001)  MDSREADFIELD: opening file: xx_atemp.0000000000.001.001.data
(PID.TID 0000.0001)  MDSREADFIELD: opening file: xx_aqh.0000000000.001.001.data
(PID.TID 0000.0001)  MDSREADFIELD: opening file: xx_aqh.0000000000.001.001.data
(PID.TID 0000.0001) 
(PID.TID 0000.0001)  exf_GetFFieldsRec: first, changed, fac:   F   F   0.49863388E+00
(PID.TID 0000.0001)  exf_GetFFieldsRec:      count0, count1:   1   2
(PID.TID 0000.0001) 
(PID.TID 0000.0001) 
(PID.TID 0000.0001)  exf_GetFFieldsRec: first, changed, fac:   F   F   0.49863388E+00
(PID.TID 0000.0001)  exf_GetFFieldsRec:      count0, count1:   1   2
(PID.TID 0000.0001) 
 cg2d: Sum(rhs),rhsMax =   7.37474317724640E-16  1.23585471329616E+00
(PID.TID 0000.0001)                    cg2d_init_res =    3.48544561445295E-01
(PID.TID 0000.0001)                       cg2d_iters =    45
(PID.TID 0000.0001)                         cg2d_res =    6.49477568406970E-14
(PID.TID 0000.0001) 
(PID.TID 0000.0001)  cal_TimeStamp: iter =          2 time =  0.72000000E+04
(PID.TID 0000.0001)                 date =   19790101       20000
(PID.TID 0000.0001) 
(PID.TID 0000.0001) 
(PID.TID 0000.0001)  exf_GetFFieldsRec: first, changed, fac:   F   F   0.49726776E+00
(PID.TID 0000.0001)  exf_GetFFieldsRec:      count0, count1:   1   2
(PID.TID 0000.0001) 
(PID.TID 0000.0001) 
(PID.TID 0000.0001)  exf_GetFFieldsRec: first, changed, fac:   F   F   0.49726776E+00
(PID.TID 0000.0001)  exf_GetFFieldsRec:      count0, count1:   1   2
(PID.TID 0000.0001) 
(PID.TID 0000.0001)  MDSREADFIELD: opening file: xx_uwind.0000000000.001.001.data
(PID.TID 0000.0001)  MDSREADFIELD: opening file: xx_uwind.0000000000.001.001.data
(PID.TID 0000.0001)  MDSREADFIELD: opening file: xx_vwind.0000000000.001.001.data
(PID.TID 0000.0001)  MDSREADFIELD: opening file: xx_vwind.0000000000.001.001.data
(PID.TID 0000.0001) 
(PID.TID 0000.0001)  exf_GetFFieldsRec: first, changed, fac:   F   F   0.49726776E+00
(PID.TID 0000.0001)  exf_GetFFieldsRec:      count0, count1:   1   2
(PID.TID 0000.0001) 
(PID.TID 0000.0001) 
(PID.TID 0000.0001)  exf_GetFFieldsRec: first, changed, fac:   F   F   0.49726776E+00
(PID.TID 0000.0001)  exf_GetFFieldsRec:      count0, count1:   1   2
(PID.TID 0000.0001) 
(PID.TID 0000.0001) 
(PID.TID 0000.0001)  exf_GetFFieldsRec: first, changed, fac:   F   F   0.49726776E+00
(PID.TID 0000.0001)  exf_GetFFieldsRec:      count0, count1:   1   2
(PID.TID 0000.0001) 
(PID.TID 0000.0001)  MDSREADFIELD: opening file: xx_atemp.0000000000.001.001.data
(PID.TID 0000.0001)  MDSREADFIELD: opening file: xx_atemp.0000000000.001.001.data
(PID.TID 0000.0001)  MDSREADFIELD: opening file: xx_aqh.0000000000.001.001.data
(PID.TID 0000.0001)  MDSREADFIELD: opening file: xx_aqh.0000000000.001.001.data
(PID.TID 0000.0001) 
(PID.TID 0000.0001)  exf_GetFFieldsRec: first, changed, fac:   F   F   0.49726776E+00
(PID.TID 0000.0001)  exf_GetFFieldsRec:      count0, count1:   1   2
(PID.TID 0000.0001) 
(PID.TID 0000.0001) 
(PID.TID 0000.0001)  exf_GetFFieldsRec: first, changed, fac:   F   F   0.49726776E+00
(PID.TID 0000.0001)  exf_GetFFieldsRec:      count0, count1:   1   2
(PID.TID 0000.0001) 
 cg2d: Sum(rhs),rhsMax =   5.15733289407905E-15  1.25438452343308E+00
(PID.TID 0000.0001)                    cg2d_init_res =    2.36078257974884E-01
(PID.TID 0000.0001)                       cg2d_iters =    45
(PID.TID 0000.0001)                         cg2d_res =    6.62546240472977E-14
(PID.TID 0000.0001) 
(PID.TID 0000.0001)  cal_TimeStamp: iter =          3 time =  0.10800000E+05
(PID.TID 0000.0001)                 date =   19790101       30000
(PID.TID 0000.0001) 
(PID.TID 0000.0001) 
(PID.TID 0000.0001)  exf_GetFFieldsRec: first, changed, fac:   F   F   0.49590164E+00
(PID.TID 0000.0001)  exf_GetFFieldsRec:      count0, count1:   1   2
(PID.TID 0000.0001) 
(PID.TID 0000.0001) 
(PID.TID 0000.0001)  exf_GetFFieldsRec: first, changed, fac:   F   F   0.49590164E+00
(PID.TID 0000.0001)  exf_GetFFieldsRec:      count0, count1:   1   2
(PID.TID 0000.0001) 
(PID.TID 0000.0001)  MDSREADFIELD: opening file: xx_uwind.0000000000.001.001.data
(PID.TID 0000.0001)  MDSREADFIELD: opening file: xx_uwind.0000000000.001.001.data
(PID.TID 0000.0001)  MDSREADFIELD: opening file: xx_vwind.0000000000.001.001.data
(PID.TID 0000.0001)  MDSREADFIELD: opening file: xx_vwind.0000000000.001.001.data
(PID.TID 0000.0001) 
(PID.TID 0000.0001)  exf_GetFFieldsRec: first, changed, fac:   F   F   0.49590164E+00
(PID.TID 0000.0001)  exf_GetFFieldsRec:      count0, count1:   1   2
(PID.TID 0000.0001) 
(PID.TID 0000.0001) 
(PID.TID 0000.0001)  exf_GetFFieldsRec: first, changed, fac:   F   F   0.49590164E+00
(PID.TID 0000.0001)  exf_GetFFieldsRec:      count0, count1:   1   2
(PID.TID 0000.0001) 
(PID.TID 0000.0001) 
(PID.TID 0000.0001)  exf_GetFFieldsRec: first, changed, fac:   F   F   0.49590164E+00
(PID.TID 0000.0001)  exf_GetFFieldsRec:      count0, count1:   1   2
(PID.TID 0000.0001) 
(PID.TID 0000.0001)  MDSREADFIELD: opening file: xx_atemp.0000000000.001.001.data
(PID.TID 0000.0001)  MDSREADFIELD: opening file: xx_atemp.0000000000.001.001.data
(PID.TID 0000.0001)  MDSREADFIELD: opening file: xx_aqh.0000000000.001.001.data
(PID.TID 0000.0001)  MDSREADFIELD: opening file: xx_aqh.0000000000.001.001.data
(PID.TID 0000.0001) 
(PID.TID 0000.0001)  exf_GetFFieldsRec: first, changed, fac:   F   F   0.49590164E+00
(PID.TID 0000.0001)  exf_GetFFieldsRec:      count0, count1:   1   2
(PID.TID 0000.0001) 
(PID.TID 0000.0001) 
(PID.TID 0000.0001)  exf_GetFFieldsRec: first, changed, fac:   F   F   0.49590164E+00
(PID.TID 0000.0001)  exf_GetFFieldsRec:      count0, count1:   1   2
(PID.TID 0000.0001) 
 cg2d: Sum(rhs),rhsMax =   3.23569296356574E-15  1.25494322187500E+00
(PID.TID 0000.0001)                    cg2d_init_res =    1.82553144423778E-01
(PID.TID 0000.0001)                       cg2d_iters =    45
(PID.TID 0000.0001)                         cg2d_res =    5.12415178255015E-14
(PID.TID 0000.0001) 
(PID.TID 0000.0001)  cal_TimeStamp: iter =          4 time =  0.14400000E+05
(PID.TID 0000.0001)                 date =   19790101       40000
(PID.TID 0000.0001) 
(PID.TID 0000.0001)  MDSREADFIELD: opening file: tbar.0000000000.001.001.data
(PID.TID 0000.0001)  MDSREADFIELD: opening global file: labsea_SST_fields
(PID.TID 0000.0001)  MDSREADFIELD: opening file: tbar.0000000000.001.001.data
(PID.TID 0000.0001)  MDSREADFIELD: opening global file: labsea_Lev.ptmp
(PID.TID 0000.0001)  MDSREADFIELD: opening file: sbar.0000000000.001.001.data
(PID.TID 0000.0001)  MDSREADFIELD: opening global file: labsea_Lev.salt
(PID.TID 0000.0001)  MDSREADFIELD: opening file: psbar.0000000000.001.001.data
(PID.TID 0000.0001)  MDSREADFIELD: opening global file: labsea_TP_mean

  cost_ssh: offset_sum =   71.

(PID.TID 0000.0001)  MDSREADFIELD: opening file: psbar.0000000000.001.001.data
(PID.TID 0000.0001)  MDSREADFIELD: opening global file: labsea_TP_fields
(PID.TID 0000.0001)  MDSREADFIELD: opening global file: labsea_ERS_fields
(PID.TID 0000.0001)  MDSREADFIELD: opening file: tbar.0000000000.001.001.data
(PID.TID 0000.0001)  MDSREADFIELD: opening global file: labsea_SST_fields
  --> objf_temp(bi,bj)    =  913.322487
  --> objf_salt(bi,bj)    =  293.144573
  --> objf_temp0(bi,bj)   =  0.
  --> objf_salt0(bi,bj)   =  0.
  --> objf_sst(bi,bj)     =  201.662552
  --> objf_sss(bi,bj)     =  0.
  --> objf_h(bi,bj)       =  0.
  --> objf_hmean          =  0.0266992949
  --> objf_tauu(bi,bj)    =  0.
  --> objf_tauum(bi,bj)   =  0.
  --> objf_tauv(bi,bj)    =  0.
  --> objf_tauvm(bi,bj)   =  0.
  --> objf_hflux(bi,bj)   =  0.
  --> objf_hflux(bi,bj)   =  0.
  --> objf_hflux(bi,bj)   =  0.
  --> objf_sflux(bi,bj)   =  0.
  --> objf_sflux(bi,bj)   =  0.
  --> objf_sflux(bi,bj)   =  0.
  --> objf_atl(bi,bj)     =  0.
  --> objf_ctdt(bi,bj)    =  0.
  --> objf_ctds(bi,bj)    =  0.
  --> objf_xbt(bi,bj)     =  0.
  --> objf_argot(bi,bj)   =  0.
  --> objf_argos(bi,bj)   =  0.
  --> objf_drift(bi,bj)   =  0.
  --> objf_tdrift(bi,bj)  =  0.
  --> objf_sdrift(bi,bj)  =  0.
  --> objf_wdrift(bi,bj)  =  0.
  --> objf_scatx(bi,bj)   =  0.
  --> objf_scaty(bi,bj)   =  0.
  --> objf_scatxm(bi,bj)  =  0.
  --> objf_scatym(bi,bj)  =  0.
  --> objf_uwind(bi,bj)   =  0.
  --> objf_vwind(bi,bj)   =  0.
  --> objf_atemp(bi,bj)   =  9.E-08
  --> objf_aqh(bi,bj)     =  0.
  --> objf_obcsn(bi,bj)   =  0.
  --> objf_obcss(bi,bj)   =  0.
  --> objf_obcsw(bi,bj)   =  0.
  --> objf_obcse(bi,bj)   =  0.
  --> objf_hmean           =  0.0266992949
  --> fc               =  1408.15631
(PID.TID 0000.0001)  MDSREADFIELD: opening file: xx_atemp.0000000000.001.001.data
 ph-grd 3 -------------------------------
 ph-grd 3     0    3   11    1    1   0.140815631E+04 0.140815631E+04 0.140815631E+04
 ph-grd 3     0    3    3    3    0   -.110845584E-08 0.545696821E-09 0.149230362E+01
(PID.TID 0000.0001)  MDSREADFIELD: opening file: adxx_atemp.0000000000.001.001.data
(PID.TID 0000.0001)  MDSREADFIELD: opening file: xx_atemp.0000000000.001.001.data
(PID.TID 0000.0001) 
(PID.TID 0000.0001)  cal_TimeStamp: iter =          0 time =  0.00000000E+00
(PID.TID 0000.0001)                 date =   19790101           0
(PID.TID 0000.0001) 
(PID.TID 0000.0001) %MON kefCori_max                  =   1.4171638136144E-04
(PID.TID 0000.0001) %MON kefCori_min                  =   1.0637108408252E-04
(PID.TID 0000.0001) %MON kefCori_mean                 =   1.2676338344768E-04
(PID.TID 0000.0001) %MON kefCori_sd                   =   1.1001401444773E-05
(PID.TID 0000.0001) %MON kefCoriG_max                 =   1.4112379284621E-04
(PID.TID 0000.0001) %MON kefCoriG_min                 =   1.0462373297123E-04
(PID.TID 0000.0001) %MON kefCoriG_mean                =   1.2556776212280E-04
(PID.TID 0000.0001) %MON kefCoriG_sd                  =   1.1352720951562E-05
(PID.TID 0000.0001) // CG2D normalisation factor =          0.1609493984093919507084164E-03
(PID.TID 0000.0001) 
(PID.TID 0000.0001)  MDSREADFIELD: opening global file: LevCli_temp.labsea
(PID.TID 0000.0001) // =======================================================
(PID.TID 0000.0001) // Field Initial Temperature at iteration          1
(PID.TID 0000.0001) // CMIN =          9.205863475799561E-01
(PID.TID 0000.0001) // CMAX =          1.333307647705078E+01
(PID.TID 0000.0001) // CINT =          4.597218566470676E-01
(PID.TID 0000.0001) // SYMBOLS (CMIN->CMAX): -abcdefghijklmnopqrstuvwxyz+
(PID.TID 0000.0001) //                  0.0: .
(PID.TID 0000.0001) // RANGE I (Lo:Hi:Step):(   1:  20:   1)
(PID.TID 0000.0001) // RANGE J (Lo:Hi:Step):(  16:   1:  -1)
(PID.TID 0000.0001) // RANGE K (Lo:Hi:Step):(   1:   1:   1)
(PID.TID 0000.0001) // =======================================================
(PID.TID 0000.0001) K =   1
(PID.TID 0000.0001)                I=10      I=20
(PID.TID 0000.0001) |--J--|123456789|123456789|
(PID.TID 0000.0001)     16 .----...............
(PID.TID 0000.0001)     15 aabaaaaaaaa.........
(PID.TID 0000.0001)     14 .ccccccbbbbc........
(PID.TID 0000.0001)     13 ....dddddddd........
(PID.TID 0000.0001)     12 ......dcdddddd......
(PID.TID 0000.0001)     11 ........cccdd.......
(PID.TID 0000.0001)     10 .......bbcdddd......
(PID.TID 0000.0001)      9 .......cdeeffff....j
(PID.TID 0000.0001)      8 .....ccdefgghhggh..k
(PID.TID 0000.0001)      7 ......d.fghiiiiiijkl
(PID.TID 0000.0001)      6 .........ghhijjjkklm
(PID.TID 0000.0001)      5 ..........hhhijklmnn
(PID.TID 0000.0001)      4 ............ghikmopq
(PID.TID 0000.0001)      3 ..........k.hhiknqsu
(PID.TID 0000.0001)      2 .......oonm..ijknqux
(PID.TID 0000.0001)      1 ........qponlkklosw+
(PID.TID 0000.0001) // =======================================================
(PID.TID 0000.0001) // END OF FIELD                                          =
(PID.TID 0000.0001) // =======================================================
(PID.TID 0000.0001) 
(PID.TID 0000.0001)  MDSREADFIELD: opening global file: LevCli_salt.labsea
(PID.TID 0000.0001) // =======================================================
(PID.TID 0000.0001) // Field Initial Salinity at iteration          1
(PID.TID 0000.0001) // CMIN =          3.012869834899902E+01
(PID.TID 0000.0001) // CMAX =          3.487366104125977E+01
(PID.TID 0000.0001) // CINT =          1.757393589726201E-01
(PID.TID 0000.0001) // SYMBOLS (CMIN->CMAX): -abcdefghijklmnopqrstuvwxyz+
(PID.TID 0000.0001) //                  0.0: .
(PID.TID 0000.0001) // RANGE I (Lo:Hi:Step):(   1:  20:   1)
(PID.TID 0000.0001) // RANGE J (Lo:Hi:Step):(  16:   1:  -1)
(PID.TID 0000.0001) // RANGE K (Lo:Hi:Step):(   1:   1:   1)
(PID.TID 0000.0001) // =======================================================
(PID.TID 0000.0001) K =   1
(PID.TID 0000.0001)                I=10      I=20
(PID.TID 0000.0001) |--J--|123456789|123456789|
(PID.TID 0000.0001)     16 .nnos...............
(PID.TID 0000.0001)     15 lnoppppppol.........
(PID.TID 0000.0001)     14 .nponmllllmn........
(PID.TID 0000.0001)     13 ....ljhijkmo........
(PID.TID 0000.0001)     12 ......ghjlmors......
(PID.TID 0000.0001)     11 ........jmnpr.......
(PID.TID 0000.0001)     10 .......jlnpqrq......
(PID.TID 0000.0001)      9 .......noqsttts....w
(PID.TID 0000.0001)      8 .....jlnpsuvwwutu..x
(PID.TID 0000.0001)      7 ......j.rruwxyxxwxxy
(PID.TID 0000.0001)      6 .........ppruxyyzzzz
(PID.TID 0000.0001)      5 ..........ijoswyzzzz
(PID.TID 0000.0001)      4 ............iotwyzzz
(PID.TID 0000.0001)      3 ..........g.imquwyzz
(PID.TID 0000.0001)      2 .......-bef..knqtvxz
(PID.TID 0000.0001)      1 ........-cegijlosvy+
(PID.TID 0000.0001) // =======================================================
(PID.TID 0000.0001) // END OF FIELD                                          =
(PID.TID 0000.0001) // =======================================================
(PID.TID 0000.0001) 
(PID.TID 0000.0001)  MDSREADFIELD: opening file: xx_theta.0000000000.001.001.data
(PID.TID 0000.0001)  MDSREADFIELD: opening file: xx_salt.0000000000.001.001.data
(PID.TID 0000.0001) // =======================================================
(PID.TID 0000.0001) // Model current state
(PID.TID 0000.0001) // =======================================================
(PID.TID 0000.0001) 
(PID.TID 0000.0001) // =======================================================
(PID.TID 0000.0001) // Begin MONITOR dynamic field statistics
(PID.TID 0000.0001) // =======================================================
(PID.TID 0000.0001) %MON time_tsnumber                =                     0
(PID.TID 0000.0001) %MON time_secondsf                =   0.0000000000000E+00
(PID.TID 0000.0001) %MON time_secondsi                =                     0
(PID.TID 0000.0001) %MON dynstat_eta_max              =   0.0000000000000E+00
(PID.TID 0000.0001) %MON dynstat_eta_min              =   0.0000000000000E+00
(PID.TID 0000.0001) %MON dynstat_eta_mean             =   0.0000000000000E+00
(PID.TID 0000.0001) %MON dynstat_eta_sd               =   0.0000000000000E+00
(PID.TID 0000.0001) %MON dynstat_eta_del2             =   0.0000000000000E+00
(PID.TID 0000.0001) %MON dynstat_uvel_max             =   0.0000000000000E+00
(PID.TID 0000.0001) %MON dynstat_uvel_min             =   0.0000000000000E+00
(PID.TID 0000.0001) %MON dynstat_uvel_mean            =   0.0000000000000E+00
(PID.TID 0000.0001) %MON dynstat_uvel_sd              =   0.0000000000000E+00
(PID.TID 0000.0001) %MON dynstat_uvel_del2            =   0.0000000000000E+00
(PID.TID 0000.0001) %MON dynstat_vvel_max             =   0.0000000000000E+00
(PID.TID 0000.0001) %MON dynstat_vvel_min             =   0.0000000000000E+00
(PID.TID 0000.0001) %MON dynstat_vvel_mean            =   0.0000000000000E+00
(PID.TID 0000.0001) %MON dynstat_vvel_sd              =   0.0000000000000E+00
(PID.TID 0000.0001) %MON dynstat_vvel_del2            =   0.0000000000000E+00
(PID.TID 0000.0001) %MON dynstat_wvel_max             =   0.0000000000000E+00
(PID.TID 0000.0001) %MON dynstat_wvel_min             =   0.0000000000000E+00
(PID.TID 0000.0001) %MON dynstat_wvel_mean            =   0.0000000000000E+00
(PID.TID 0000.0001) %MON dynstat_wvel_sd              =   0.0000000000000E+00
(PID.TID 0000.0001) %MON dynstat_wvel_del2            =   0.0000000000000E+00
(PID.TID 0000.0001) %MON dynstat_theta_max            =   1.3333076477051E+01
(PID.TID 0000.0001) %MON dynstat_theta_min            =  -1.4103618860245E+00
(PID.TID 0000.0001) %MON dynstat_theta_mean           =   3.1168426975828E+00
(PID.TID 0000.0001) %MON dynstat_theta_sd             =   1.4047681849177E+00
(PID.TID 0000.0001) %MON dynstat_theta_del2           =   9.7237468258508E-02
(PID.TID 0000.0001) %MON dynstat_salt_max             =   3.5450622558594E+01
(PID.TID 0000.0001) %MON dynstat_salt_min             =   3.0128698348999E+01
(PID.TID 0000.0001) %MON dynstat_salt_mean            =   3.4759355674691E+01
(PID.TID 0000.0001) %MON dynstat_salt_sd              =   4.4306214753982E-01
(PID.TID 0000.0001) %MON dynstat_salt_del2            =   3.8354629598638E-02
(PID.TID 0000.0001) %MON advcfl_uvel_max              =   0.0000000000000E+00
(PID.TID 0000.0001) %MON advcfl_vvel_max              =   0.0000000000000E+00
(PID.TID 0000.0001) %MON advcfl_wvel_max              =   0.0000000000000E+00
(PID.TID 0000.0001) %MON advcfl_W_hf_max              =   0.0000000000000E+00
(PID.TID 0000.0001) %MON ke_max                       =   0.0000000000000E+00
(PID.TID 0000.0001) %MON ke_mean                      =   0.0000000000000E+00
(PID.TID 0000.0001) %MON ke_volint                    =   0.0000000000000E+00
(PID.TID 0000.0001) %MON ke_volmean                   =   0.0000000000000E+00
(PID.TID 0000.0001) // =======================================================
(PID.TID 0000.0001) // End MONITOR dynamic field statistics
(PID.TID 0000.0001) // =======================================================
(PID.TID 0000.0001)  MDSREADFIELD: opening file: xx_atemp.0000000000.001.001.data
(PID.TID 0000.0001)  MDSREADFIELD: opening file: xx_atemp.0000000000.001.001.data
(PID.TID 0000.0001)  MDSREADFIELD: opening file: xx_aqh.0000000000.001.001.data
(PID.TID 0000.0001)  MDSREADFIELD: opening file: xx_aqh.0000000000.001.001.data
(PID.TID 0000.0001)  MDSREADFIELD: opening file: xx_uwind.0000000000.001.001.data
(PID.TID 0000.0001)  MDSREADFIELD: opening file: xx_uwind.0000000000.001.001.data
(PID.TID 0000.0001)  MDSREADFIELD: opening file: xx_vwind.0000000000.001.001.data
(PID.TID 0000.0001)  MDSREADFIELD: opening file: xx_vwind.0000000000.001.001.data
(PID.TID 0000.0001) 
(PID.TID 0000.0001)  exf_GetFFieldsRec: first, changed, fac:   T   F   0.50000000E+00
(PID.TID 0000.0001)  exf_GetFFieldsRec:      count0, count1:   1   2
(PID.TID 0000.0001) 
(PID.TID 0000.0001)  MDSREADFIELD: opening global file: u10m.labsea79
(PID.TID 0000.0001)  MDSREADFIELD: opening global file: u10m.labsea79
(PID.TID 0000.0001) 
(PID.TID 0000.0001)  exf_GetFFieldsRec: first, changed, fac:   T   F   0.50000000E+00
(PID.TID 0000.0001)  exf_GetFFieldsRec:      count0, count1:   1   2
(PID.TID 0000.0001) 
(PID.TID 0000.0001)  MDSREADFIELD: opening global file: v10m.labsea79
(PID.TID 0000.0001)  MDSREADFIELD: opening global file: v10m.labsea79
(PID.TID 0000.0001)  MDSREADFIELD: opening file: xx_uwind.0000000000.001.001.data
(PID.TID 0000.0001)  MDSREADFIELD: opening file: xx_uwind.0000000000.001.001.data
(PID.TID 0000.0001)  MDSREADFIELD: opening file: xx_vwind.0000000000.001.001.data
(PID.TID 0000.0001)  MDSREADFIELD: opening file: xx_vwind.0000000000.001.001.data
(PID.TID 0000.0001) 
(PID.TID 0000.0001)  exf_GetFFieldsRec: first, changed, fac:   T   F   0.50000000E+00
(PID.TID 0000.0001)  exf_GetFFieldsRec:      count0, count1:   1   2
(PID.TID 0000.0001) 
(PID.TID 0000.0001)  MDSREADFIELD: opening global file: tair.labsea1979
(PID.TID 0000.0001)  MDSREADFIELD: opening global file: tair.labsea1979
(PID.TID 0000.0001) 
(PID.TID 0000.0001)  exf_GetFFieldsRec: first, changed, fac:   T   F   0.50000000E+00
(PID.TID 0000.0001)  exf_GetFFieldsRec:      count0, count1:   1   2
(PID.TID 0000.0001) 
(PID.TID 0000.0001)  MDSREADFIELD: opening global file: qa.labsea1979
(PID.TID 0000.0001)  MDSREADFIELD: opening global file: qa.labsea1979
(PID.TID 0000.0001) 
(PID.TID 0000.0001)  exf_GetFFieldsRec: first, changed, fac:   T   F   0.50000000E+00
(PID.TID 0000.0001)  exf_GetFFieldsRec:      count0, count1:   1   2
(PID.TID 0000.0001) 
(PID.TID 0000.0001)  MDSREADFIELD: opening global file: prate.labsea1979
(PID.TID 0000.0001)  MDSREADFIELD: opening global file: prate.labsea1979
(PID.TID 0000.0001)  MDSREADFIELD: opening file: xx_atemp.0000000000.001.001.data
(PID.TID 0000.0001)  MDSREADFIELD: opening file: xx_atemp.0000000000.001.001.data
(PID.TID 0000.0001)  MDSREADFIELD: opening file: xx_aqh.0000000000.001.001.data
(PID.TID 0000.0001)  MDSREADFIELD: opening file: xx_aqh.0000000000.001.001.data
(PID.TID 0000.0001) 
(PID.TID 0000.0001)  exf_GetFFieldsRec: first, changed, fac:   T   F   0.50000000E+00
(PID.TID 0000.0001)  exf_GetFFieldsRec:      count0, count1:   1   2
(PID.TID 0000.0001) 
(PID.TID 0000.0001)  MDSREADFIELD: opening global file: fsh.labsea1979
(PID.TID 0000.0001)  MDSREADFIELD: opening global file: fsh.labsea1979
(PID.TID 0000.0001) 
(PID.TID 0000.0001)  exf_GetFFieldsRec: first, changed, fac:   T   F   0.50000000E+00
(PID.TID 0000.0001)  exf_GetFFieldsRec:      count0, count1:   1   2
(PID.TID 0000.0001) 
(PID.TID 0000.0001)  MDSREADFIELD: opening global file: flo.labsea1979
(PID.TID 0000.0001)  MDSREADFIELD: opening global file: flo.labsea1979
 pathei: in check_exp: iter/time/rec/yprefix  0  0. 1 kf_
 pathei: in check_exp: date   0
 pathei: in check_exp: theta  -1.96
 pathei: in check_exp: salt    32.5598145
 pathei: in check_exp: uvel    0.
 pathei: in check_exp: vvel    0.
 pathei: in check_exp: qnet    0.
 pathei: in check_exp: empmr  -0.000153695737
 pathei: in check_exp: fu      0.0119642461
 pathei: in check_exp: fv     -0.0250166478
 cg2d: Sum(rhs),rhsMax =   1.95590071916385E-16  1.00807802167630E+00
(PID.TID 0000.0001)                    cg2d_init_res =    1.61521300655486E+00
(PID.TID 0000.0001)                       cg2d_iters =    47
(PID.TID 0000.0001)                         cg2d_res =    5.70138941994743E-14
(PID.TID 0000.0001) 
(PID.TID 0000.0001)  cal_TimeStamp: iter =          1 time =  0.36000000E+04
(PID.TID 0000.0001)                 date =   19790101       10000
(PID.TID 0000.0001) 
(PID.TID 0000.0001) 
(PID.TID 0000.0001)  exf_GetFFieldsRec: first, changed, fac:   F   F   0.49863388E+00
(PID.TID 0000.0001)  exf_GetFFieldsRec:      count0, count1:   1   2
(PID.TID 0000.0001) 
(PID.TID 0000.0001) 
(PID.TID 0000.0001)  exf_GetFFieldsRec: first, changed, fac:   F   F   0.49863388E+00
(PID.TID 0000.0001)  exf_GetFFieldsRec:      count0, count1:   1   2
(PID.TID 0000.0001) 
(PID.TID 0000.0001)  MDSREADFIELD: opening file: xx_uwind.0000000000.001.001.data
(PID.TID 0000.0001)  MDSREADFIELD: opening file: xx_uwind.0000000000.001.001.data
(PID.TID 0000.0001)  MDSREADFIELD: opening file: xx_vwind.0000000000.001.001.data
(PID.TID 0000.0001)  MDSREADFIELD: opening file: xx_vwind.0000000000.001.001.data
(PID.TID 0000.0001) 
(PID.TID 0000.0001)  exf_GetFFieldsRec: first, changed, fac:   F   F   0.49863388E+00
(PID.TID 0000.0001)  exf_GetFFieldsRec:      count0, count1:   1   2
(PID.TID 0000.0001) 
(PID.TID 0000.0001) 
(PID.TID 0000.0001)  exf_GetFFieldsRec: first, changed, fac:   F   F   0.49863388E+00
(PID.TID 0000.0001)  exf_GetFFieldsRec:      count0, count1:   1   2
(PID.TID 0000.0001) 
(PID.TID 0000.0001) 
(PID.TID 0000.0001)  exf_GetFFieldsRec: first, changed, fac:   F   F   0.49863388E+00
(PID.TID 0000.0001)  exf_GetFFieldsRec:      count0, count1:   1   2
(PID.TID 0000.0001) 
(PID.TID 0000.0001)  MDSREADFIELD: opening file: xx_atemp.0000000000.001.001.data
(PID.TID 0000.0001)  MDSREADFIELD: opening file: xx_atemp.0000000000.001.001.data
(PID.TID 0000.0001)  MDSREADFIELD: opening file: xx_aqh.0000000000.001.001.data
(PID.TID 0000.0001)  MDSREADFIELD: opening file: xx_aqh.0000000000.001.001.data
(PID.TID 0000.0001) 
(PID.TID 0000.0001)  exf_GetFFieldsRec: first, changed, fac:   F   F   0.49863388E+00
(PID.TID 0000.0001)  exf_GetFFieldsRec:      count0, count1:   1   2
(PID.TID 0000.0001) 
(PID.TID 0000.0001) 
(PID.TID 0000.0001)  exf_GetFFieldsRec: first, changed, fac:   F   F   0.49863388E+00
(PID.TID 0000.0001)  exf_GetFFieldsRec:      count0, count1:   1   2
(PID.TID 0000.0001) 
 cg2d: Sum(rhs),rhsMax =   5.15429712799609E-16  1.23585471329616E+00
(PID.TID 0000.0001)                    cg2d_init_res =    3.48544561447511E-01
(PID.TID 0000.0001)                       cg2d_iters =    45
(PID.TID 0000.0001)                         cg2d_res =    6.49477568700568E-14
(PID.TID 0000.0001) 
(PID.TID 0000.0001)  cal_TimeStamp: iter =          2 time =  0.72000000E+04
(PID.TID 0000.0001)                 date =   19790101       20000
(PID.TID 0000.0001) 
(PID.TID 0000.0001) 
(PID.TID 0000.0001)  exf_GetFFieldsRec: first, changed, fac:   F   F   0.49726776E+00
(PID.TID 0000.0001)  exf_GetFFieldsRec:      count0, count1:   1   2
(PID.TID 0000.0001) 
(PID.TID 0000.0001) 
(PID.TID 0000.0001)  exf_GetFFieldsRec: first, changed, fac:   F   F   0.49726776E+00
(PID.TID 0000.0001)  exf_GetFFieldsRec:      count0, count1:   1   2
(PID.TID 0000.0001) 
(PID.TID 0000.0001)  MDSREADFIELD: opening file: xx_uwind.0000000000.001.001.data
(PID.TID 0000.0001)  MDSREADFIELD: opening file: xx_uwind.0000000000.001.001.data
(PID.TID 0000.0001)  MDSREADFIELD: opening file: xx_vwind.0000000000.001.001.data
(PID.TID 0000.0001)  MDSREADFIELD: opening file: xx_vwind.0000000000.001.001.data
(PID.TID 0000.0001) 
(PID.TID 0000.0001)  exf_GetFFieldsRec: first, changed, fac:   F   F   0.49726776E+00
(PID.TID 0000.0001)  exf_GetFFieldsRec:      count0, count1:   1   2
(PID.TID 0000.0001) 
(PID.TID 0000.0001) 
(PID.TID 0000.0001)  exf_GetFFieldsRec: first, changed, fac:   F   F   0.49726776E+00
(PID.TID 0000.0001)  exf_GetFFieldsRec:      count0, count1:   1   2
(PID.TID 0000.0001) 
(PID.TID 0000.0001) 
(PID.TID 0000.0001)  exf_GetFFieldsRec: first, changed, fac:   F   F   0.49726776E+00
(PID.TID 0000.0001)  exf_GetFFieldsRec:      count0, count1:   1   2
(PID.TID 0000.0001) 
(PID.TID 0000.0001)  MDSREADFIELD: opening file: xx_atemp.0000000000.001.001.data
(PID.TID 0000.0001)  MDSREADFIELD: opening file: xx_atemp.0000000000.001.001.data
(PID.TID 0000.0001)  MDSREADFIELD: opening file: xx_aqh.0000000000.001.001.data
(PID.TID 0000.0001)  MDSREADFIELD: opening file: xx_aqh.0000000000.001.001.data
(PID.TID 0000.0001) 
(PID.TID 0000.0001)  exf_GetFFieldsRec: first, changed, fac:   F   F   0.49726776E+00
(PID.TID 0000.0001)  exf_GetFFieldsRec:      count0, count1:   1   2
(PID.TID 0000.0001) 
(PID.TID 0000.0001) 
(PID.TID 0000.0001)  exf_GetFFieldsRec: first, changed, fac:   F   F   0.49726776E+00
(PID.TID 0000.0001)  exf_GetFFieldsRec:      count0, count1:   1   2
(PID.TID 0000.0001) 
 cg2d: Sum(rhs),rhsMax =   4.89061915964761E-15  1.25438452343278E+00
(PID.TID 0000.0001)                    cg2d_init_res =    2.36078257960979E-01
(PID.TID 0000.0001)                       cg2d_iters =    45
(PID.TID 0000.0001)                         cg2d_res =    6.62546239800794E-14
(PID.TID 0000.0001) 
(PID.TID 0000.0001)  cal_TimeStamp: iter =          3 time =  0.10800000E+05
(PID.TID 0000.0001)                 date =   19790101       30000
(PID.TID 0000.0001) 
(PID.TID 0000.0001) 
(PID.TID 0000.0001)  exf_GetFFieldsRec: first, changed, fac:   F   F   0.49590164E+00
(PID.TID 0000.0001)  exf_GetFFieldsRec:      count0, count1:   1   2
(PID.TID 0000.0001) 
(PID.TID 0000.0001) 
(PID.TID 0000.0001)  exf_GetFFieldsRec: first, changed, fac:   F   F   0.49590164E+00
(PID.TID 0000.0001)  exf_GetFFieldsRec:      count0, count1:   1   2
(PID.TID 0000.0001) 
(PID.TID 0000.0001)  MDSREADFIELD: opening file: xx_uwind.0000000000.001.001.data
(PID.TID 0000.0001)  MDSREADFIELD: opening file: xx_uwind.0000000000.001.001.data
(PID.TID 0000.0001)  MDSREADFIELD: opening file: xx_vwind.0000000000.001.001.data
(PID.TID 0000.0001)  MDSREADFIELD: opening file: xx_vwind.0000000000.001.001.data
(PID.TID 0000.0001) 
(PID.TID 0000.0001)  exf_GetFFieldsRec: first, changed, fac:   F   F   0.49590164E+00
(PID.TID 0000.0001)  exf_GetFFieldsRec:      count0, count1:   1   2
(PID.TID 0000.0001) 
(PID.TID 0000.0001) 
(PID.TID 0000.0001)  exf_GetFFieldsRec: first, changed, fac:   F   F   0.49590164E+00
(PID.TID 0000.0001)  exf_GetFFieldsRec:      count0, count1:   1   2
(PID.TID 0000.0001) 
(PID.TID 0000.0001) 
(PID.TID 0000.0001)  exf_GetFFieldsRec: first, changed, fac:   F   F   0.49590164E+00
(PID.TID 0000.0001)  exf_GetFFieldsRec:      count0, count1:   1   2
(PID.TID 0000.0001) 
(PID.TID 0000.0001)  MDSREADFIELD: opening file: xx_atemp.0000000000.001.001.data
(PID.TID 0000.0001)  MDSREADFIELD: opening file: xx_atemp.0000000000.001.001.data
(PID.TID 0000.0001)  MDSREADFIELD: opening file: xx_aqh.0000000000.001.001.data
(PID.TID 0000.0001)  MDSREADFIELD: opening file: xx_aqh.0000000000.001.001.data
(PID.TID 0000.0001) 
(PID.TID 0000.0001)  exf_GetFFieldsRec: first, changed, fac:   F   F   0.49590164E+00
(PID.TID 0000.0001)  exf_GetFFieldsRec:      count0, count1:   1   2
(PID.TID 0000.0001) 
(PID.TID 0000.0001) 
(PID.TID 0000.0001)  exf_GetFFieldsRec: first, changed, fac:   F   F   0.49590164E+00
(PID.TID 0000.0001)  exf_GetFFieldsRec:      count0, count1:   1   2
(PID.TID 0000.0001) 
 cg2d: Sum(rhs),rhsMax =   1.48362225282916E-15  1.25494322187254E+00
(PID.TID 0000.0001)                    cg2d_init_res =    1.82553144039767E-01
(PID.TID 0000.0001)                       cg2d_iters =    45
(PID.TID 0000.0001)                         cg2d_res =    5.12415161590436E-14
(PID.TID 0000.0001) 
(PID.TID 0000.0001)  cal_TimeStamp: iter =          4 time =  0.14400000E+05
(PID.TID 0000.0001)                 date =   19790101       40000
(PID.TID 0000.0001) 
(PID.TID 0000.0001)  MDSREADFIELD: opening file: tbar.0000000000.001.001.data
(PID.TID 0000.0001)  MDSREADFIELD: opening global file: labsea_SST_fields
(PID.TID 0000.0001)  MDSREADFIELD: opening file: tbar.0000000000.001.001.data
(PID.TID 0000.0001)  MDSREADFIELD: opening global file: labsea_Lev.ptmp
(PID.TID 0000.0001)  MDSREADFIELD: opening file: sbar.0000000000.001.001.data
(PID.TID 0000.0001)  MDSREADFIELD: opening global file: labsea_Lev.salt
(PID.TID 0000.0001)  MDSREADFIELD: opening file: psbar.0000000000.001.001.data
(PID.TID 0000.0001)  MDSREADFIELD: opening global file: labsea_TP_mean

  cost_ssh: offset_sum =   71.

(PID.TID 0000.0001)  MDSREADFIELD: opening file: psbar.0000000000.001.001.data
(PID.TID 0000.0001)  MDSREADFIELD: opening global file: labsea_TP_fields
(PID.TID 0000.0001)  MDSREADFIELD: opening global file: labsea_ERS_fields
(PID.TID 0000.0001)  MDSREADFIELD: opening file: tbar.0000000000.001.001.data
(PID.TID 0000.0001)  MDSREADFIELD: opening global file: labsea_SST_fields
  --> objf_temp(bi,bj)    =  913.322487
  --> objf_salt(bi,bj)    =  293.144573
  --> objf_temp0(bi,bj)   =  0.
  --> objf_salt0(bi,bj)   =  0.
  --> objf_sst(bi,bj)     =  201.662552
  --> objf_sss(bi,bj)     =  0.
  --> objf_h(bi,bj)       =  0.
  --> objf_hmean          =  0.0266992949
  --> objf_tauu(bi,bj)    =  0.
  --> objf_tauum(bi,bj)   =  0.
  --> objf_tauv(bi,bj)    =  0.
  --> objf_tauvm(bi,bj)   =  0.
  --> objf_hflux(bi,bj)   =  0.
  --> objf_hflux(bi,bj)   =  0.
  --> objf_hflux(bi,bj)   =  0.
  --> objf_sflux(bi,bj)   =  0.
  --> objf_sflux(bi,bj)   =  0.
  --> objf_sflux(bi,bj)   =  0.
  --> objf_atl(bi,bj)     =  0.
  --> objf_ctdt(bi,bj)    =  0.
  --> objf_ctds(bi,bj)    =  0.
  --> objf_xbt(bi,bj)     =  0.
  --> objf_argot(bi,bj)   =  0.
  --> objf_argos(bi,bj)   =  0.
  --> objf_drift(bi,bj)   =  0.
  --> objf_tdrift(bi,bj)  =  0.
  --> objf_sdrift(bi,bj)  =  0.
  --> objf_wdrift(bi,bj)  =  0.
  --> objf_scatx(bi,bj)   =  0.
  --> objf_scaty(bi,bj)   =  0.
  --> objf_scatxm(bi,bj)  =  0.
  --> objf_scatym(bi,bj)  =  0.
  --> objf_uwind(bi,bj)   =  0.
  --> objf_vwind(bi,bj)   =  0.
  --> objf_atemp(bi,bj)   =  9.E-08
  --> objf_aqh(bi,bj)     =  0.
  --> objf_obcsn(bi,bj)   =  0.
  --> objf_obcss(bi,bj)   =  0.
  --> objf_obcsw(bi,bj)   =  0.
  --> objf_obcse(bi,bj)   =  0.
  --> objf_hmean           =  0.0266992949
  --> fc               =  1408.15631
(PID.TID 0000.0001)  MDSREADFIELD: opening file: xx_atemp.0000000000.001.001.data
(PID.TID 0000.0001)  MDSREADFIELD: opening file: xx_atemp.0000000000.001.001.data
(PID.TID 0000.0001) 
(PID.TID 0000.0001)  cal_TimeStamp: iter =          0 time =  0.00000000E+00
(PID.TID 0000.0001)                 date =   19790101           0
(PID.TID 0000.0001) 
(PID.TID 0000.0001) %MON kefCori_max                  =   1.4171638136144E-04
(PID.TID 0000.0001) %MON kefCori_min                  =   1.0637108408252E-04
(PID.TID 0000.0001) %MON kefCori_mean                 =   1.2676338344768E-04
(PID.TID 0000.0001) %MON kefCori_sd                   =   1.1001401444773E-05
(PID.TID 0000.0001) %MON kefCoriG_max                 =   1.4112379284621E-04
(PID.TID 0000.0001) %MON kefCoriG_min                 =   1.0462373297123E-04
(PID.TID 0000.0001) %MON kefCoriG_mean                =   1.2556776212280E-04
(PID.TID 0000.0001) %MON kefCoriG_sd                  =   1.1352720951562E-05
(PID.TID 0000.0001) // CG2D normalisation factor =          0.1609493984093919507084164E-03
(PID.TID 0000.0001) 
(PID.TID 0000.0001)  MDSREADFIELD: opening global file: LevCli_temp.labsea
(PID.TID 0000.0001) // =======================================================
(PID.TID 0000.0001) // Field Initial Temperature at iteration          1
(PID.TID 0000.0001) // CMIN =          9.205863475799561E-01
(PID.TID 0000.0001) // CMAX =          1.333307647705078E+01
(PID.TID 0000.0001) // CINT =          4.597218566470676E-01
(PID.TID 0000.0001) // SYMBOLS (CMIN->CMAX): -abcdefghijklmnopqrstuvwxyz+
(PID.TID 0000.0001) //                  0.0: .
(PID.TID 0000.0001) // RANGE I (Lo:Hi:Step):(   1:  20:   1)
(PID.TID 0000.0001) // RANGE J (Lo:Hi:Step):(  16:   1:  -1)
(PID.TID 0000.0001) // RANGE K (Lo:Hi:Step):(   1:   1:   1)
(PID.TID 0000.0001) // =======================================================
(PID.TID 0000.0001) K =   1
(PID.TID 0000.0001)                I=10      I=20
(PID.TID 0000.0001) |--J--|123456789|123456789|
(PID.TID 0000.0001)     16 .----...............
(PID.TID 0000.0001)     15 aabaaaaaaaa.........
(PID.TID 0000.0001)     14 .ccccccbbbbc........
(PID.TID 0000.0001)     13 ....dddddddd........
(PID.TID 0000.0001)     12 ......dcdddddd......
(PID.TID 0000.0001)     11 ........cccdd.......
(PID.TID 0000.0001)     10 .......bbcdddd......
(PID.TID 0000.0001)      9 .......cdeeffff....j
(PID.TID 0000.0001)      8 .....ccdefgghhggh..k
(PID.TID 0000.0001)      7 ......d.fghiiiiiijkl
(PID.TID 0000.0001)      6 .........ghhijjjkklm
(PID.TID 0000.0001)      5 ..........hhhijklmnn
(PID.TID 0000.0001)      4 ............ghikmopq
(PID.TID 0000.0001)      3 ..........k.hhiknqsu
(PID.TID 0000.0001)      2 .......oonm..ijknqux
(PID.TID 0000.0001)      1 ........qponlkklosw+
(PID.TID 0000.0001) // =======================================================
(PID.TID 0000.0001) // END OF FIELD                                          =
(PID.TID 0000.0001) // =======================================================
(PID.TID 0000.0001) 
(PID.TID 0000.0001)  MDSREADFIELD: opening global file: LevCli_salt.labsea
(PID.TID 0000.0001) // =======================================================
(PID.TID 0000.0001) // Field Initial Salinity at iteration          1
(PID.TID 0000.0001) // CMIN =          3.012869834899902E+01
(PID.TID 0000.0001) // CMAX =          3.487366104125977E+01
(PID.TID 0000.0001) // CINT =          1.757393589726201E-01
(PID.TID 0000.0001) // SYMBOLS (CMIN->CMAX): -abcdefghijklmnopqrstuvwxyz+
(PID.TID 0000.0001) //                  0.0: .
(PID.TID 0000.0001) // RANGE I (Lo:Hi:Step):(   1:  20:   1)
(PID.TID 0000.0001) // RANGE J (Lo:Hi:Step):(  16:   1:  -1)
(PID.TID 0000.0001) // RANGE K (Lo:Hi:Step):(   1:   1:   1)
(PID.TID 0000.0001) // =======================================================
(PID.TID 0000.0001) K =   1
(PID.TID 0000.0001)                I=10      I=20
(PID.TID 0000.0001) |--J--|123456789|123456789|
(PID.TID 0000.0001)     16 .nnos...............
(PID.TID 0000.0001)     15 lnoppppppol.........
(PID.TID 0000.0001)     14 .nponmllllmn........
(PID.TID 0000.0001)     13 ....ljhijkmo........
(PID.TID 0000.0001)     12 ......ghjlmors......
(PID.TID 0000.0001)     11 ........jmnpr.......
(PID.TID 0000.0001)     10 .......jlnpqrq......
(PID.TID 0000.0001)      9 .......noqsttts....w
(PID.TID 0000.0001)      8 .....jlnpsuvwwutu..x
(PID.TID 0000.0001)      7 ......j.rruwxyxxwxxy
(PID.TID 0000.0001)      6 .........ppruxyyzzzz
(PID.TID 0000.0001)      5 ..........ijoswyzzzz
(PID.TID 0000.0001)      4 ............iotwyzzz
(PID.TID 0000.0001)      3 ..........g.imquwyzz
(PID.TID 0000.0001)      2 .......-bef..knqtvxz
(PID.TID 0000.0001)      1 ........-cegijlosvy+
(PID.TID 0000.0001) // =======================================================
(PID.TID 0000.0001) // END OF FIELD                                          =
(PID.TID 0000.0001) // =======================================================
(PID.TID 0000.0001) 
(PID.TID 0000.0001)  MDSREADFIELD: opening file: xx_theta.0000000000.001.001.data
(PID.TID 0000.0001)  MDSREADFIELD: opening file: xx_salt.0000000000.001.001.data
(PID.TID 0000.0001) // =======================================================
(PID.TID 0000.0001) // Model current state
(PID.TID 0000.0001) // =======================================================
(PID.TID 0000.0001) 
(PID.TID 0000.0001) // =======================================================
(PID.TID 0000.0001) // Begin MONITOR dynamic field statistics
(PID.TID 0000.0001) // =======================================================
(PID.TID 0000.0001) %MON time_tsnumber                =                     0
(PID.TID 0000.0001) %MON time_secondsf                =   0.0000000000000E+00
(PID.TID 0000.0001) %MON time_secondsi                =                     0
(PID.TID 0000.0001) %MON dynstat_eta_max              =   0.0000000000000E+00
(PID.TID 0000.0001) %MON dynstat_eta_min              =   0.0000000000000E+00
(PID.TID 0000.0001) %MON dynstat_eta_mean             =   0.0000000000000E+00
(PID.TID 0000.0001) %MON dynstat_eta_sd               =   0.0000000000000E+00
(PID.TID 0000.0001) %MON dynstat_eta_del2             =   0.0000000000000E+00
(PID.TID 0000.0001) %MON dynstat_uvel_max             =   0.0000000000000E+00
(PID.TID 0000.0001) %MON dynstat_uvel_min             =   0.0000000000000E+00
(PID.TID 0000.0001) %MON dynstat_uvel_mean            =   0.0000000000000E+00
(PID.TID 0000.0001) %MON dynstat_uvel_sd              =   0.0000000000000E+00
(PID.TID 0000.0001) %MON dynstat_uvel_del2            =   0.0000000000000E+00
(PID.TID 0000.0001) %MON dynstat_vvel_max             =   0.0000000000000E+00
(PID.TID 0000.0001) %MON dynstat_vvel_min             =   0.0000000000000E+00
(PID.TID 0000.0001) %MON dynstat_vvel_mean            =   0.0000000000000E+00
(PID.TID 0000.0001) %MON dynstat_vvel_sd              =   0.0000000000000E+00
(PID.TID 0000.0001) %MON dynstat_vvel_del2            =   0.0000000000000E+00
(PID.TID 0000.0001) %MON dynstat_wvel_max             =   0.0000000000000E+00
(PID.TID 0000.0001) %MON dynstat_wvel_min             =   0.0000000000000E+00
(PID.TID 0000.0001) %MON dynstat_wvel_mean            =   0.0000000000000E+00
(PID.TID 0000.0001) %MON dynstat_wvel_sd              =   0.0000000000000E+00
(PID.TID 0000.0001) %MON dynstat_wvel_del2            =   0.0000000000000E+00
(PID.TID 0000.0001) %MON dynstat_theta_max            =   1.3333076477051E+01
(PID.TID 0000.0001) %MON dynstat_theta_min            =  -1.4103618860245E+00
(PID.TID 0000.0001) %MON dynstat_theta_mean           =   3.1168426975828E+00
(PID.TID 0000.0001) %MON dynstat_theta_sd             =   1.4047681849177E+00
(PID.TID 0000.0001) %MON dynstat_theta_del2           =   9.7237468258508E-02
(PID.TID 0000.0001) %MON dynstat_salt_max             =   3.5450622558594E+01
(PID.TID 0000.0001) %MON dynstat_salt_min             =   3.0128698348999E+01
(PID.TID 0000.0001) %MON dynstat_salt_mean            =   3.4759355674691E+01
(PID.TID 0000.0001) %MON dynstat_salt_sd              =   4.4306214753982E-01
(PID.TID 0000.0001) %MON dynstat_salt_del2            =   3.8354629598638E-02
(PID.TID 0000.0001) %MON advcfl_uvel_max              =   0.0000000000000E+00
(PID.TID 0000.0001) %MON advcfl_vvel_max              =   0.0000000000000E+00
(PID.TID 0000.0001) %MON advcfl_wvel_max              =   0.0000000000000E+00
(PID.TID 0000.0001) %MON advcfl_W_hf_max              =   0.0000000000000E+00
(PID.TID 0000.0001) %MON ke_max                       =   0.0000000000000E+00
(PID.TID 0000.0001) %MON ke_mean                      =   0.0000000000000E+00
(PID.TID 0000.0001) %MON ke_volint                    =   0.0000000000000E+00
(PID.TID 0000.0001) %MON ke_volmean                   =   0.0000000000000E+00
(PID.TID 0000.0001) // =======================================================
(PID.TID 0000.0001) // End MONITOR dynamic field statistics
(PID.TID 0000.0001) // =======================================================
(PID.TID 0000.0001)  MDSREADFIELD: opening file: xx_atemp.0000000000.001.001.data
(PID.TID 0000.0001)  MDSREADFIELD: opening file: xx_atemp.0000000000.001.001.data
(PID.TID 0000.0001)  MDSREADFIELD: opening file: xx_aqh.0000000000.001.001.data
(PID.TID 0000.0001)  MDSREADFIELD: opening file: xx_aqh.0000000000.001.001.data
(PID.TID 0000.0001)  MDSREADFIELD: opening file: xx_uwind.0000000000.001.001.data
(PID.TID 0000.0001)  MDSREADFIELD: opening file: xx_uwind.0000000000.001.001.data
(PID.TID 0000.0001)  MDSREADFIELD: opening file: xx_vwind.0000000000.001.001.data
(PID.TID 0000.0001)  MDSREADFIELD: opening file: xx_vwind.0000000000.001.001.data
(PID.TID 0000.0001) 
(PID.TID 0000.0001)  exf_GetFFieldsRec: first, changed, fac:   T   F   0.50000000E+00
(PID.TID 0000.0001)  exf_GetFFieldsRec:      count0, count1:   1   2
(PID.TID 0000.0001) 
(PID.TID 0000.0001)  MDSREADFIELD: opening global file: u10m.labsea79
(PID.TID 0000.0001)  MDSREADFIELD: opening global file: u10m.labsea79
(PID.TID 0000.0001) 
(PID.TID 0000.0001)  exf_GetFFieldsRec: first, changed, fac:   T   F   0.50000000E+00
(PID.TID 0000.0001)  exf_GetFFieldsRec:      count0, count1:   1   2
(PID.TID 0000.0001) 
(PID.TID 0000.0001)  MDSREADFIELD: opening global file: v10m.labsea79
(PID.TID 0000.0001)  MDSREADFIELD: opening global file: v10m.labsea79
(PID.TID 0000.0001)  MDSREADFIELD: opening file: xx_uwind.0000000000.001.001.data
(PID.TID 0000.0001)  MDSREADFIELD: opening file: xx_uwind.0000000000.001.001.data
(PID.TID 0000.0001)  MDSREADFIELD: opening file: xx_vwind.0000000000.001.001.data
(PID.TID 0000.0001)  MDSREADFIELD: opening file: xx_vwind.0000000000.001.001.data
(PID.TID 0000.0001) 
(PID.TID 0000.0001)  exf_GetFFieldsRec: first, changed, fac:   T   F   0.50000000E+00
(PID.TID 0000.0001)  exf_GetFFieldsRec:      count0, count1:   1   2
(PID.TID 0000.0001) 
(PID.TID 0000.0001)  MDSREADFIELD: opening global file: tair.labsea1979
(PID.TID 0000.0001)  MDSREADFIELD: opening global file: tair.labsea1979
(PID.TID 0000.0001) 
(PID.TID 0000.0001)  exf_GetFFieldsRec: first, changed, fac:   T   F   0.50000000E+00
(PID.TID 0000.0001)  exf_GetFFieldsRec:      count0, count1:   1   2
(PID.TID 0000.0001) 
(PID.TID 0000.0001)  MDSREADFIELD: opening global file: qa.labsea1979
(PID.TID 0000.0001)  MDSREADFIELD: opening global file: qa.labsea1979
(PID.TID 0000.0001) 
(PID.TID 0000.0001)  exf_GetFFieldsRec: first, changed, fac:   T   F   0.50000000E+00
(PID.TID 0000.0001)  exf_GetFFieldsRec:      count0, count1:   1   2
(PID.TID 0000.0001) 
(PID.TID 0000.0001)  MDSREADFIELD: opening global file: prate.labsea1979
(PID.TID 0000.0001)  MDSREADFIELD: opening global file: prate.labsea1979
(PID.TID 0000.0001)  MDSREADFIELD: opening file: xx_atemp.0000000000.001.001.data
(PID.TID 0000.0001)  MDSREADFIELD: opening file: xx_atemp.0000000000.001.001.data
(PID.TID 0000.0001)  MDSREADFIELD: opening file: xx_aqh.0000000000.001.001.data
(PID.TID 0000.0001)  MDSREADFIELD: opening file: xx_aqh.0000000000.001.001.data
(PID.TID 0000.0001) 
(PID.TID 0000.0001)  exf_GetFFieldsRec: first, changed, fac:   T   F   0.50000000E+00
(PID.TID 0000.0001)  exf_GetFFieldsRec:      count0, count1:   1   2
(PID.TID 0000.0001) 
(PID.TID 0000.0001)  MDSREADFIELD: opening global file: fsh.labsea1979
(PID.TID 0000.0001)  MDSREADFIELD: opening global file: fsh.labsea1979
(PID.TID 0000.0001) 
(PID.TID 0000.0001)  exf_GetFFieldsRec: first, changed, fac:   T   F   0.50000000E+00
(PID.TID 0000.0001)  exf_GetFFieldsRec:      count0, count1:   1   2
(PID.TID 0000.0001) 
(PID.TID 0000.0001)  MDSREADFIELD: opening global file: flo.labsea1979
(PID.TID 0000.0001)  MDSREADFIELD: opening global file: flo.labsea1979
 pathei: in check_exp: iter/time/rec/yprefix  0  0. 1 kf_
 pathei: in check_exp: date   0
 pathei: in check_exp: theta  -1.96
 pathei: in check_exp: salt    32.5598145
 pathei: in check_exp: uvel    0.
 pathei: in check_exp: vvel    0.
 pathei: in check_exp: qnet    0.
 pathei: in check_exp: empmr  -0.000153695737
 pathei: in check_exp: fu      0.0119642461
 pathei: in check_exp: fv     -0.0250166478
 cg2d: Sum(rhs),rhsMax =   1.95590071916385E-16  1.00807802167630E+00
(PID.TID 0000.0001)                    cg2d_init_res =    1.61521300655486E+00
(PID.TID 0000.0001)                       cg2d_iters =    47
(PID.TID 0000.0001)                         cg2d_res =    5.70138941994743E-14
(PID.TID 0000.0001) 
(PID.TID 0000.0001)  cal_TimeStamp: iter =          1 time =  0.36000000E+04
(PID.TID 0000.0001)                 date =   19790101       10000
(PID.TID 0000.0001) 
(PID.TID 0000.0001) 
(PID.TID 0000.0001)  exf_GetFFieldsRec: first, changed, fac:   F   F   0.49863388E+00
(PID.TID 0000.0001)  exf_GetFFieldsRec:      count0, count1:   1   2
(PID.TID 0000.0001) 
(PID.TID 0000.0001) 
(PID.TID 0000.0001)  exf_GetFFieldsRec: first, changed, fac:   F   F   0.49863388E+00
(PID.TID 0000.0001)  exf_GetFFieldsRec:      count0, count1:   1   2
(PID.TID 0000.0001) 
(PID.TID 0000.0001)  MDSREADFIELD: opening file: xx_uwind.0000000000.001.001.data
(PID.TID 0000.0001)  MDSREADFIELD: opening file: xx_uwind.0000000000.001.001.data
(PID.TID 0000.0001)  MDSREADFIELD: opening file: xx_vwind.0000000000.001.001.data
(PID.TID 0000.0001)  MDSREADFIELD: opening file: xx_vwind.0000000000.001.001.data
(PID.TID 0000.0001) 
(PID.TID 0000.0001)  exf_GetFFieldsRec: first, changed, fac:   F   F   0.49863388E+00
(PID.TID 0000.0001)  exf_GetFFieldsRec:      count0, count1:   1   2
(PID.TID 0000.0001) 
(PID.TID 0000.0001) 
(PID.TID 0000.0001)  exf_GetFFieldsRec: first, changed, fac:   F   F   0.49863388E+00
(PID.TID 0000.0001)  exf_GetFFieldsRec:      count0, count1:   1   2
(PID.TID 0000.0001) 
(PID.TID 0000.0001) 
(PID.TID 0000.0001)  exf_GetFFieldsRec: first, changed, fac:   F   F   0.49863388E+00
(PID.TID 0000.0001)  exf_GetFFieldsRec:      count0, count1:   1   2
(PID.TID 0000.0001) 
(PID.TID 0000.0001)  MDSREADFIELD: opening file: xx_atemp.0000000000.001.001.data
(PID.TID 0000.0001)  MDSREADFIELD: opening file: xx_atemp.0000000000.001.001.data
(PID.TID 0000.0001)  MDSREADFIELD: opening file: xx_aqh.0000000000.001.001.data
(PID.TID 0000.0001)  MDSREADFIELD: opening file: xx_aqh.0000000000.001.001.data
(PID.TID 0000.0001) 
(PID.TID 0000.0001)  exf_GetFFieldsRec: first, changed, fac:   F   F   0.49863388E+00
(PID.TID 0000.0001)  exf_GetFFieldsRec:      count0, count1:   1   2
(PID.TID 0000.0001) 
(PID.TID 0000.0001) 
(PID.TID 0000.0001)  exf_GetFFieldsRec: first, changed, fac:   F   F   0.49863388E+00
(PID.TID 0000.0001)  exf_GetFFieldsRec:      count0, count1:   1   2
(PID.TID 0000.0001) 
 cg2d: Sum(rhs),rhsMax =   7.37474317724640E-16  1.23585471329616E+00
(PID.TID 0000.0001)                    cg2d_init_res =    3.48544561454378E-01
(PID.TID 0000.0001)                       cg2d_iters =    45
(PID.TID 0000.0001)                         cg2d_res =    6.49477568767508E-14
(PID.TID 0000.0001) 
(PID.TID 0000.0001)  cal_TimeStamp: iter =          2 time =  0.72000000E+04
(PID.TID 0000.0001)                 date =   19790101       20000
(PID.TID 0000.0001) 
(PID.TID 0000.0001) 
(PID.TID 0000.0001)  exf_GetFFieldsRec: first, changed, fac:   F   F   0.49726776E+00
(PID.TID 0000.0001)  exf_GetFFieldsRec:      count0, count1:   1   2
(PID.TID 0000.0001) 
(PID.TID 0000.0001) 
(PID.TID 0000.0001)  exf_GetFFieldsRec: first, changed, fac:   F   F   0.49726776E+00
(PID.TID 0000.0001)  exf_GetFFieldsRec:      count0, count1:   1   2
(PID.TID 0000.0001) 
(PID.TID 0000.0001)  MDSREADFIELD: opening file: xx_uwind.0000000000.001.001.data
(PID.TID 0000.0001)  MDSREADFIELD: opening file: xx_uwind.0000000000.001.001.data
(PID.TID 0000.0001)  MDSREADFIELD: opening file: xx_vwind.0000000000.001.001.data
(PID.TID 0000.0001)  MDSREADFIELD: opening file: xx_vwind.0000000000.001.001.data
(PID.TID 0000.0001) 
(PID.TID 0000.0001)  exf_GetFFieldsRec: first, changed, fac:   F   F   0.49726776E+00
(PID.TID 0000.0001)  exf_GetFFieldsRec:      count0, count1:   1   2
(PID.TID 0000.0001) 
(PID.TID 0000.0001) 
(PID.TID 0000.0001)  exf_GetFFieldsRec: first, changed, fac:   F   F   0.49726776E+00
(PID.TID 0000.0001)  exf_GetFFieldsRec:      count0, count1:   1   2
(PID.TID 0000.0001) 
(PID.TID 0000.0001) 
(PID.TID 0000.0001)  exf_GetFFieldsRec: first, changed, fac:   F   F   0.49726776E+00
(PID.TID 0000.0001)  exf_GetFFieldsRec:      count0, count1:   1   2
(PID.TID 0000.0001) 
(PID.TID 0000.0001)  MDSREADFIELD: opening file: xx_atemp.0000000000.001.001.data
(PID.TID 0000.0001)  MDSREADFIELD: opening file: xx_atemp.0000000000.001.001.data
(PID.TID 0000.0001)  MDSREADFIELD: opening file: xx_aqh.0000000000.001.001.data
(PID.TID 0000.0001)  MDSREADFIELD: opening file: xx_aqh.0000000000.001.001.data
(PID.TID 0000.0001) 
(PID.TID 0000.0001)  exf_GetFFieldsRec: first, changed, fac:   F   F   0.49726776E+00
(PID.TID 0000.0001)  exf_GetFFieldsRec:      count0, count1:   1   2
(PID.TID 0000.0001) 
(PID.TID 0000.0001) 
(PID.TID 0000.0001)  exf_GetFFieldsRec: first, changed, fac:   F   F   0.49726776E+00
(PID.TID 0000.0001)  exf_GetFFieldsRec:      count0, count1:   1   2
(PID.TID 0000.0001) 
 cg2d: Sum(rhs),rhsMax =   5.53506893097300E-15  1.25438452343327E+00
(PID.TID 0000.0001)                    cg2d_init_res =    2.36078257982791E-01
(PID.TID 0000.0001)                       cg2d_iters =    45
(PID.TID 0000.0001)                         cg2d_res =    6.62546241528872E-14
(PID.TID 0000.0001) 
(PID.TID 0000.0001)  cal_TimeStamp: iter =          3 time =  0.10800000E+05
(PID.TID 0000.0001)                 date =   19790101       30000
(PID.TID 0000.0001) 
(PID.TID 0000.0001) 
(PID.TID 0000.0001)  exf_GetFFieldsRec: first, changed, fac:   F   F   0.49590164E+00
(PID.TID 0000.0001)  exf_GetFFieldsRec:      count0, count1:   1   2
(PID.TID 0000.0001) 
(PID.TID 0000.0001) 
(PID.TID 0000.0001)  exf_GetFFieldsRec: first, changed, fac:   F   F   0.49590164E+00
(PID.TID 0000.0001)  exf_GetFFieldsRec:      count0, count1:   1   2
(PID.TID 0000.0001) 
(PID.TID 0000.0001)  MDSREADFIELD: opening file: xx_uwind.0000000000.001.001.data
(PID.TID 0000.0001)  MDSREADFIELD: opening file: xx_uwind.0000000000.001.001.data
(PID.TID 0000.0001)  MDSREADFIELD: opening file: xx_vwind.0000000000.001.001.data
(PID.TID 0000.0001)  MDSREADFIELD: opening file: xx_vwind.0000000000.001.001.data
(PID.TID 0000.0001) 
(PID.TID 0000.0001)  exf_GetFFieldsRec: first, changed, fac:   F   F   0.49590164E+00
(PID.TID 0000.0001)  exf_GetFFieldsRec:      count0, count1:   1   2
(PID.TID 0000.0001) 
(PID.TID 0000.0001) 
(PID.TID 0000.0001)  exf_GetFFieldsRec: first, changed, fac:   F   F   0.49590164E+00
(PID.TID 0000.0001)  exf_GetFFieldsRec:      count0, count1:   1   2
(PID.TID 0000.0001) 
(PID.TID 0000.0001) 
(PID.TID 0000.0001)  exf_GetFFieldsRec: first, changed, fac:   F   F   0.49590164E+00
(PID.TID 0000.0001)  exf_GetFFieldsRec:      count0, count1:   1   2
(PID.TID 0000.0001) 
(PID.TID 0000.0001)  MDSREADFIELD: opening file: xx_atemp.0000000000.001.001.data
(PID.TID 0000.0001)  MDSREADFIELD: opening file: xx_atemp.0000000000.001.001.data
(PID.TID 0000.0001)  MDSREADFIELD: opening file: xx_aqh.0000000000.001.001.data
(PID.TID 0000.0001)  MDSREADFIELD: opening file: xx_aqh.0000000000.001.001.data
(PID.TID 0000.0001) 
(PID.TID 0000.0001)  exf_GetFFieldsRec: first, changed, fac:   F   F   0.49590164E+00
(PID.TID 0000.0001)  exf_GetFFieldsRec:      count0, count1:   1   2
(PID.TID 0000.0001) 
(PID.TID 0000.0001) 
(PID.TID 0000.0001)  exf_GetFFieldsRec: first, changed, fac:   F   F   0.49590164E+00
(PID.TID 0000.0001)  exf_GetFFieldsRec:      count0, count1:   1   2
(PID.TID 0000.0001) 
 cg2d: Sum(rhs),rhsMax =   2.82282877628326E-15  1.25494322187641E+00
(PID.TID 0000.0001)                    cg2d_init_res =    1.82553143989684E-01
(PID.TID 0000.0001)                       cg2d_iters =    45
(PID.TID 0000.0001)                         cg2d_res =    5.12415165035589E-14
(PID.TID 0000.0001) 
(PID.TID 0000.0001)  cal_TimeStamp: iter =          4 time =  0.14400000E+05
(PID.TID 0000.0001)                 date =   19790101       40000
(PID.TID 0000.0001) 
(PID.TID 0000.0001)  MDSREADFIELD: opening file: tbar.0000000000.001.001.data
(PID.TID 0000.0001)  MDSREADFIELD: opening global file: labsea_SST_fields
(PID.TID 0000.0001)  MDSREADFIELD: opening file: tbar.0000000000.001.001.data
(PID.TID 0000.0001)  MDSREADFIELD: opening global file: labsea_Lev.ptmp
(PID.TID 0000.0001)  MDSREADFIELD: opening file: sbar.0000000000.001.001.data
(PID.TID 0000.0001)  MDSREADFIELD: opening global file: labsea_Lev.salt
(PID.TID 0000.0001)  MDSREADFIELD: opening file: psbar.0000000000.001.001.data
(PID.TID 0000.0001)  MDSREADFIELD: opening global file: labsea_TP_mean

  cost_ssh: offset_sum =   71.

(PID.TID 0000.0001)  MDSREADFIELD: opening file: psbar.0000000000.001.001.data
(PID.TID 0000.0001)  MDSREADFIELD: opening global file: labsea_TP_fields
(PID.TID 0000.0001)  MDSREADFIELD: opening global file: labsea_ERS_fields
(PID.TID 0000.0001)  MDSREADFIELD: opening file: tbar.0000000000.001.001.data
(PID.TID 0000.0001)  MDSREADFIELD: opening global file: labsea_SST_fields
  --> objf_temp(bi,bj)    =  913.322487
  --> objf_salt(bi,bj)    =  293.144573
  --> objf_temp0(bi,bj)   =  0.
  --> objf_salt0(bi,bj)   =  0.
  --> objf_sst(bi,bj)     =  201.662552
  --> objf_sss(bi,bj)     =  0.
  --> objf_h(bi,bj)       =  0.
  --> objf_hmean          =  0.0266992949
  --> objf_tauu(bi,bj)    =  0.
  --> objf_tauum(bi,bj)   =  0.
  --> objf_tauv(bi,bj)    =  0.
  --> objf_tauvm(bi,bj)   =  0.
  --> objf_hflux(bi,bj)   =  0.
  --> objf_hflux(bi,bj)   =  0.
  --> objf_hflux(bi,bj)   =  0.
  --> objf_sflux(bi,bj)   =  0.
  --> objf_sflux(bi,bj)   =  0.
  --> objf_sflux(bi,bj)   =  0.
  --> objf_atl(bi,bj)     =  0.
  --> objf_ctdt(bi,bj)    =  0.
  --> objf_ctds(bi,bj)    =  0.
  --> objf_xbt(bi,bj)     =  0.
  --> objf_argot(bi,bj)   =  0.
  --> objf_argos(bi,bj)   =  0.
  --> objf_drift(bi,bj)   =  0.
  --> objf_tdrift(bi,bj)  =  0.
  --> objf_sdrift(bi,bj)  =  0.
  --> objf_wdrift(bi,bj)  =  0.
  --> objf_scatx(bi,bj)   =  0.
  --> objf_scaty(bi,bj)   =  0.
  --> objf_scatxm(bi,bj)  =  0.
  --> objf_scatym(bi,bj)  =  0.
  --> objf_uwind(bi,bj)   =  0.
  --> objf_vwind(bi,bj)   =  0.
  --> objf_atemp(bi,bj)   =  9.E-08
  --> objf_aqh(bi,bj)     =  0.
  --> objf_obcsn(bi,bj)   =  0.
  --> objf_obcss(bi,bj)   =  0.
  --> objf_obcsw(bi,bj)   =  0.
  --> objf_obcse(bi,bj)   =  0.
  --> objf_hmean           =  0.0266992949
  --> fc               =  1408.15631
(PID.TID 0000.0001)  MDSREADFIELD: opening file: xx_atemp.0000000000.001.001.data
 ph-grd 3 -------------------------------
 ph-grd 3     0    4   12    1    1   0.140815631E+04 0.140815631E+04 0.140815631E+04
 ph-grd 3     0    4    4    4    0   0.101229442E-08 0.171667125E-08 -.695822096E+00
(PID.TID 0000.0001) 
(PID.TID 0000.0001) // =======================================================
(PID.TID 0000.0001) // Gradient check results  >>> START <<<
(PID.TID 0000.0001) // =======================================================
(PID.TID 0000.0001) 
(PID.TID 0000.0001) 
(PID.TID 0000.0001)  EPS =  0.100E-01
(PID.TID 0000.0001) grdchk output:                 I        ITILEPOS        JTILEPOS           LAYER            X(I)      X(I)+/-EPS
(PID.TID 0000.0001) grdchk output:                FC             FC1             FC2 FC1-FC2/(2*EPS)        GRAD(FC)   1-FDGRD/ADGRD
(PID.TID 0000.0001) grdchk output:                 1               9               1               1 0.000000000E+00 -.100000000E-01
(PID.TID 0000.0001) grdchk output:   0.140815631E+04 0.140815631E+04 0.140815631E+04 0.000000000E+00 0.000000000E+00 0.000000000E+00
(PID.TID 0000.0001) 
(PID.TID 0000.0001) grdchk output:                 2              10               1               1 0.000000000E+00 -.100000000E-01
(PID.TID 0000.0001) grdchk output:   0.140815631E+04 0.140815631E+04 0.140815631E+04 0.454747351E-10 -.183849871E-08 0.102473471E+01
(PID.TID 0000.0001) 
(PID.TID 0000.0001) grdchk output:                 3              11               1               1 0.000000000E+00 -.100000000E-01
(PID.TID 0000.0001) grdchk output:   0.140815631E+04 0.140815631E+04 0.140815631E+04 0.545696821E-09 -.110845584E-08 0.149230362E+01
(PID.TID 0000.0001) 
(PID.TID 0000.0001) 
(PID.TID 0000.0001) // =======================================================
(PID.TID 0000.0001) // Gradient check results  >>> END <<<
(PID.TID 0000.0001) // =======================================================
(PID.TID 0000.0001) 
(PID.TID 0000.0001)   Seconds in section "ALL                [THE_MODEL_MAIN]":
(PID.TID 0000.0001)           User time:  44.4499991
(PID.TID 0000.0001)         System time:  0.939999998
(PID.TID 0000.0001)     Wall clock time:  45.3910961
(PID.TID 0000.0001)          No. starts: 1
(PID.TID 0000.0001)           No. stops: 1
(PID.TID 0000.0001)   Seconds in section "INITIALISE_FIXED   [THE_MODEL_MAIN]":
(PID.TID 0000.0001)           User time:  0.140000006
(PID.TID 0000.0001)         System time:  0.0199999996
(PID.TID 0000.0001)     Wall clock time:  0.166375041
(PID.TID 0000.0001)          No. starts: 1
(PID.TID 0000.0001)           No. stops: 1
(PID.TID 0000.0001)   Seconds in section "ADTHE_MAIN_LOOP          [ADJOINT RUN]":
(PID.TID 0000.0001)           User time:  33.5900009
(PID.TID 0000.0001)         System time:  0.789999984
(PID.TID 0000.0001)     Wall clock time:  34.382338
(PID.TID 0000.0001)          No. starts: 1
(PID.TID 0000.0001)           No. stops: 1
(PID.TID 0000.0001)   Seconds in section "I/O (WRITE)        [ADJOINT LOOP]":
(PID.TID 0000.0001)           User time:  0.
(PID.TID 0000.0001)         System time:  0.
(PID.TID 0000.0001)     Wall clock time:  0.00706326962
(PID.TID 0000.0001)          No. starts: 172
(PID.TID 0000.0001)           No. stops: 172
(PID.TID 0000.0001)   Seconds in section "STATEKPP      [KPP_CALC]":
(PID.TID 0000.0001)           User time:  0.849988461
(PID.TID 0000.0001)         System time:  0.00999999791
(PID.TID 0000.0001)     Wall clock time:  0.850610733
(PID.TID 0000.0001)          No. starts: 156
(PID.TID 0000.0001)           No. stops: 156
(PID.TID 0000.0001)   Seconds in section "KPPMIX [KPP_CALC]":
(PID.TID 0000.0001)           User time:  3.47999942
(PID.TID 0000.0001)         System time:  0.
(PID.TID 0000.0001)     Wall clock time:  3.42977059
(PID.TID 0000.0001)          No. starts: 156
(PID.TID 0000.0001)           No. stops: 156
(PID.TID 0000.0001)   Seconds in section "GRDCHK_MAIN          [ADJOINT RUN]":
(PID.TID 0000.0001)           User time:  10.6399994
(PID.TID 0000.0001)         System time:  0.110000014
(PID.TID 0000.0001)     Wall clock time:  10.7413449
(PID.TID 0000.0001)          No. starts: 1
(PID.TID 0000.0001)           No. stops: 1
(PID.TID 0000.0001)   Seconds in section "ECCO SPIN-UP":
(PID.TID 0000.0001)           User time:  3.81999588
(PID.TID 0000.0001)         System time:  0.0100000501
(PID.TID 0000.0001)     Wall clock time:  3.83555174
(PID.TID 0000.0001)          No. starts: 8
(PID.TID 0000.0001)           No. stops: 8
(PID.TID 0000.0001)   Seconds in section "INITIALISE_VARIA    [THE_MAIN_LOOP]":
(PID.TID 0000.0001)           User time:  3.74999619
(PID.TID 0000.0001)         System time:  0.
(PID.TID 0000.0001)     Wall clock time:  3.74976206
(PID.TID 0000.0001)          No. starts: 8
(PID.TID 0000.0001)           No. stops: 8
(PID.TID 0000.0001)   Seconds in section "MONITOR             [THE_MAIN_LOOP]":
(PID.TID 0000.0001)           User time:  0.0599975586
(PID.TID 0000.0001)         System time:  0.
(PID.TID 0000.0001)     Wall clock time:  0.0668809414
(PID.TID 0000.0001)          No. starts: 8
(PID.TID 0000.0001)           No. stops: 8
(PID.TID 0000.0001)   Seconds in section "COST_FORCING       [ECCO SPIN-UP]":
(PID.TID 0000.0001)           User time:  0.0100021362
(PID.TID 0000.0001)         System time:  0.0100000501
(PID.TID 0000.0001)     Wall clock time:  0.0162968636
(PID.TID 0000.0001)          No. starts: 8
(PID.TID 0000.0001)           No. stops: 8
(PID.TID 0000.0001)   Seconds in section "ECCO MAIN LOOP":
(PID.TID 0000.0001)           User time:  6.56999588
(PID.TID 0000.0001)         System time:  0.0400000215
(PID.TID 0000.0001)     Wall clock time:  6.6118747
(PID.TID 0000.0001)          No. starts: 8
(PID.TID 0000.0001)           No. stops: 8
(PID.TID 0000.0001)   Seconds in section "COST_AVERAGESFIELDS   [ECCO MAIN]":
(PID.TID 0000.0001)           User time:  0.0400009155
(PID.TID 0000.0001)         System time:  0.
(PID.TID 0000.0001)     Wall clock time:  0.0247137547
(PID.TID 0000.0001)          No. starts: 32
(PID.TID 0000.0001)           No. stops: 32
(PID.TID 0000.0001)   Seconds in section "EXF_GETFORCING        [ECCO MAIN]":
(PID.TID 0000.0001)           User time:  0.260002136
(PID.TID 0000.0001)         System time:  0.
(PID.TID 0000.0001)     Wall clock time:  0.242199898
(PID.TID 0000.0001)          No. starts: 32
(PID.TID 0000.0001)           No. stops: 32
(PID.TID 0000.0001)   Seconds in section "SEAICE_MODEL       [FORWARD_STEP]":
(PID.TID 0000.0001)           User time:  0.129981995
(PID.TID 0000.0001)         System time:  0.00999999046
(PID.TID 0000.0001)     Wall clock time:  0.139097214
(PID.TID 0000.0001)          No. starts: 32
(PID.TID 0000.0001)           No. stops: 32
(PID.TID 0000.0001)   Seconds in section "THERMODYNAMICS      [THE_MAIN_LOOP]":
(PID.TID 0000.0001)           User time:  2.84999847
(PID.TID 0000.0001)         System time:  0.
(PID.TID 0000.0001)     Wall clock time:  2.85285401
(PID.TID 0000.0001)          No. starts: 32
(PID.TID 0000.0001)           No. stops: 32
(PID.TID 0000.0001)   Seconds in section "DYNAMICS            [THE_MAIN_LOOP]":
(PID.TID 0000.0001)           User time:  2.70999908
(PID.TID 0000.0001)         System time:  0.
(PID.TID 0000.0001)     Wall clock time:  2.70530176
(PID.TID 0000.0001)          No. starts: 32
(PID.TID 0000.0001)           No. stops: 32
(PID.TID 0000.0001)   Seconds in section "SOLVE_FOR_PRESSURE  [THE_MAIN_LOOP]":
(PID.TID 0000.0001)           User time:  0.150001526
(PID.TID 0000.0001)         System time:  0.
(PID.TID 0000.0001)     Wall clock time:  0.144700766
(PID.TID 0000.0001)          No. starts: 32
(PID.TID 0000.0001)           No. stops: 32
(PID.TID 0000.0001)   Seconds in section "THE_CORRECTION_STEP [THE_MAIN_LOOP]":
(PID.TID 0000.0001)           User time:  0.149997711
(PID.TID 0000.0001)         System time:  0.
(PID.TID 0000.0001)     Wall clock time:  0.148173332
(PID.TID 0000.0001)          No. starts: 32
(PID.TID 0000.0001)           No. stops: 32
(PID.TID 0000.0001)   Seconds in section "BLOCKING_EXCHANGES  [THE_MAIN_LOOP]":
(PID.TID 0000.0001)           User time:  0.0700035095
(PID.TID 0000.0001)         System time:  0.
(PID.TID 0000.0001)     Wall clock time:  0.0903241634
(PID.TID 0000.0001)          No. starts: 32
(PID.TID 0000.0001)           No. stops: 32
(PID.TID 0000.0001)   Seconds in section "ECCO SPIN-DOWN":
(PID.TID 0000.0001)           User time:  0.220005035
(PID.TID 0000.0001)         System time:  0.0499999523
(PID.TID 0000.0001)     Wall clock time:  0.269909859
(PID.TID 0000.0001)          No. starts: 8
(PID.TID 0000.0001)           No. stops: 8
(PID.TID 0000.0001)   Seconds in section "COST_AVERAGESFIELDS [ECCO SPIN-DOWN]":
(PID.TID 0000.0001)           User time:  0.0499992371
(PID.TID 0000.0001)         System time:  0.0399999619
(PID.TID 0000.0001)     Wall clock time:  0.0939811468
(PID.TID 0000.0001)          No. starts: 8
(PID.TID 0000.0001)           No. stops: 8
(PID.TID 0000.0001)   Seconds in section "COST_HYD           [ECCO SPIN-DOWN]":
(PID.TID 0000.0001)           User time:  0.130004883
(PID.TID 0000.0001)         System time:  0.00999999046
(PID.TID 0000.0001)     Wall clock time:  0.131STOP NORMAL END statement executed
647229
(PID.TID 0000.0001)          No. starts: 8
(PID.TID 0000.0001)           No. stops: 8
(PID.TID 0000.0001)   Seconds in section "COST_SSH           [ECCO SPIN-DOWN]":
(PID.TID 0000.0001)           User time:  0.00999832153
(PID.TID 0000.0001)         System time:  0.
(PID.TID 0000.0001)     Wall clock time:  0.0123670101
(PID.TID 0000.0001)          No. starts: 8
(PID.TID 0000.0001)           No. stops: 8
(PID.TID 0000.0001)   Seconds in section "COST_SST           [ECCO SPIN-DOWN]":
(PID.TID 0000.0001)           User time:  0.030002594
(PID.TID 0000.0001)         System time:  0.
(PID.TID 0000.0001)     Wall clock time:  0.0262588263
(PID.TID 0000.0001)          No. starts: 8
(PID.TID 0000.0001)           No. stops: 8
(PID.TID 0000.0001)   Seconds in section "COST_FINAL         [ECCO SPIN-DOWN]":
(PID.TID 0000.0001)           User time:  0.
(PID.TID 0000.0001)         System time:  0.
(PID.TID 0000.0001)     Wall clock time:  0.0030298233
(PID.TID 0000.0001)          No. starts: 8
(PID.TID 0000.0001)           No. stops: 8
(PID.TID 0000.0001)   Seconds in section "COST_AVERAGESFINAL [ECCO SPIN-DOWN]":
(PID.TID 0000.0001)           User time:  0.
(PID.TID 0000.0001)         System time:  0.
(PID.TID 0000.0001)     Wall clock time:  0.000314831734
(PID.TID 0000.0001)          No. starts: 8
(PID.TID 0000.0001)           No. stops: 8
(PID.TID 0000.0001)   Seconds in section "WRITE_CHECKPOINT   [THE_MODEL_MAIN]":
(PID.TID 0000.0001)           User time:  0.
(PID.TID 0000.0001)         System time:  0.
(PID.TID 0000.0001)     Wall clock time:  4.19616699E-05
(PID.TID 0000.0001)          No. starts: 1
(PID.TID 0000.0001)           No. stops: 1
(PID.TID 0000.0001) // ======================================================
(PID.TID 0000.0001) // Tile <-> Tile communication statistics
(PID.TID 0000.0001) // ======================================================
(PID.TID 0000.0001) // o Tile number: 000001
(PID.TID 0000.0001) //         No. X exchanges =              0
(PID.TID 0000.0001) //            Max. X spins =              0
(PID.TID 0000.0001) //            Min. X spins =     1000000000
(PID.TID 0000.0001) //          Total. X spins =              0
(PID.TID 0000.0001) //            Avg. X spins =       0.00E+00
(PID.TID 0000.0001) //         No. Y exchanges =              0
(PID.TID 0000.0001) //            Max. Y spins =              0
(PID.TID 0000.0001) //            Min. Y spins =     1000000000
(PID.TID 0000.0001) //          Total. Y spins =              0
(PID.TID 0000.0001) //            Avg. Y spins =       0.00E+00
(PID.TID 0000.0001) // o Thread number: 000001
(PID.TID 0000.0001) //            No. barriers =          95820
(PID.TID 0000.0001) //      Max. barrier spins =              1
(PID.TID 0000.0001) //      Min. barrier spins =              1
(PID.TID 0000.0001) //     Total barrier spins =          95820
(PID.TID 0000.0001) //      Avg. barrier spins =       1.00E+00
