(PID.TID 0000.0001) 
(PID.TID 0000.0001) // ======================================================
(PID.TID 0000.0001) //                      MITgcm UV
(PID.TID 0000.0001) //                      =========
(PID.TID 0000.0001) // ======================================================
(PID.TID 0000.0001) // execution environment starting up...
(PID.TID 0000.0001) // Run starting Wed Apr  1 14:19:48 1998
(PID.TID 0000.0001) // on melville.lcs.mit.edu
(PID.TID 0000.0001) // account cnh
(PID.TID 0000.0001) // MITgcm UV Release: $Name:  $
(PID.TID 0000.0001) 
(PID.TID 0000.0001) // =======================================================
(PID.TID 0000.0001) // Execution Environment parameter file "eedata"
(PID.TID 0000.0001) // =======================================================
(PID.TID 0000.0001) ># Example "eedata" file
(PID.TID 0000.0001) ># Lines beginning "#" are comments
(PID.TID 0000.0001) ># nTx - No. threads per process in X
(PID.TID 0000.0001) ># nTy - No. threads per process in Y
(PID.TID 0000.0001) > &EEPARMS
(PID.TID 0000.0001) > &
(PID.TID 0000.0001) ># Note: Some systems use & as the
(PID.TID 0000.0001) ># namelist terminator. Other systems
(PID.TID 0000.0001) ># use a / character (as shown here).
(PID.TID 0000.0001) 
(PID.TID 0000.0001) // =======================================================
(PID.TID 0000.0001) // Computational Grid Specification ( see files "SIZE.h" )
(PID.TID 0000.0001) //                                  ( and "eedata"       )
(PID.TID 0000.0001) // =======================================================
(PID.TID 0000.0001)      nPx =    1 ; /* No. processes in X */
(PID.TID 0000.0001)      nPy =    1 ; /* No. processes in Y */
(PID.TID 0000.0001)      nSx =    1 ; /* No. tiles in X per process */
(PID.TID 0000.0001)      nSy =    1 ; /* No. tiles in Y per process */
(PID.TID 0000.0001)      sNx =  128 ; /* Tile size in X */
(PID.TID 0000.0001)      sNy =   64 ; /* Tile size in Y */
(PID.TID 0000.0001)      OLx =    5 ; /* Tile overlap distance in X */
(PID.TID 0000.0001)      OLy =    5 ; /* Tile overlap distance in Y */
(PID.TID 0000.0001)      nTx =    1 ; /* No. threads in X per process */
(PID.TID 0000.0001)      nTy =    1 ; /* No. threads in Y per process */
(PID.TID 0000.0001)       Nr =    5 ; /* No. levels in the vertical   */
(PID.TID 0000.0001)       nX =  128 ; /* Total domain size in X ( = nPx*nSx*sNx ) */
(PID.TID 0000.0001)       nY =   64 ; /* Total domain size in Y ( = nPy*nSy*sNy ) */
(PID.TID 0000.0001)   nTiles =    1 ; /* Total no. tiles per process ( = nSx*nSy ) */
(PID.TID 0000.0001)   nProcs =    1 ; /* Total no. processes ( = nPx*nPy ) */
(PID.TID 0000.0001) nThreads =    1 ; /* Total no. threads per process ( = nTx*nTy ) */
(PID.TID 0000.0001) usingMPI =    F ; /* Flag used to control whether MPI is in use */
(PID.TID 0000.0001)                   /*  note: To execute a program with MPI calls */
(PID.TID 0000.0001)                   /*  it must be launched appropriately e.g     */
(PID.TID 0000.0001)                   /*  "mpirun -np 64 ......"                    */
(PID.TID 0000.0001) 
(PID.TID 0000.0001) // ======================================================
(PID.TID 0000.0001) // Mapping of tiles to threads
(PID.TID 0000.0001) // ======================================================
(PID.TID 0000.0001) // -o- Thread   1, tiles (   1:   1,   1:   1)
(PID.TID 0000.0001) 
(PID.TID 0000.0001) // ======================================================
(PID.TID 0000.0001) // Tile <-> Tile connectvity table
(PID.TID 0000.0001) // ======================================================
(PID.TID 0000.0001) // Tile number: 000001 (process no. = 000001)
(PID.TID 0000.0001) //        WEST: Tile = 000001, Process = 000001, Comm = put
(PID.TID 0000.0001) //                bi = 000001, bj = 000001
(PID.TID 0000.0001) //        EAST: Tile = 000001, Process = 000001, Comm = put
(PID.TID 0000.0001) //                bi = 000001, bj = 000001
(PID.TID 0000.0001) //       SOUTH: Tile = 000001, Process = 000001, Comm = put
(PID.TID 0000.0001) //                bi = 000001, bj = 000001
(PID.TID 0000.0001) //       NORTH: Tile = 000001, Process = 000001, Comm = put
(PID.TID 0000.0001) //                bi = 000001, bj = 000001
(PID.TID 0000.0001) 
(PID.TID 0000.0001) // =======================================================
(PID.TID 0000.0001) // Model parameter file "data"
(PID.TID 0000.0001) // =======================================================
(PID.TID 0000.0001) ># ====================
(PID.TID 0000.0001) ># | Model parameters |
(PID.TID 0000.0001) ># ====================
(PID.TID 0000.0001) >#
(PID.TID 0000.0001) ># Continuous equation parameters
(PID.TID 0000.0001) > &PARM01
(PID.TID 0000.0001) > tRef=281.089, 289.321, 307.191, 331.377, 432.413,
(PID.TID 0000.0001) > sRef=5*0.,
(PID.TID 0000.0001) > viscAr=0.E3,
(PID.TID 0000.0001) > viscAh=0.E6,
(PID.TID 0000.0001) > viscA4=0.E17,
(PID.TID 0000.0001) > no_slip_sides=.FALSE.,
(PID.TID 0000.0001) > no_slip_bottom=.FALSE.,
(PID.TID 0000.0001) > diffKhT=0.E3,
(PID.TID 0000.0001) > diffKrT=0.,
(PID.TID 0000.0001) > diffK4T=0.E17,
(PID.TID 0000.0001) > diffKrS=0.E2,
(PID.TID 0000.0001) > diffKhS=0.E3,
(PID.TID 0000.0001) > diffK4S=0.E17,
(PID.TID 0000.0001) > buoyancyRelation='ATMOSPHERIC',
(PID.TID 0000.0001) > eosType='IDEALGAS',
(PID.TID 0000.0001) > Integr_GeoPot=1,
(PID.TID 0000.0001) > gravity=9.81,
(PID.TID 0000.0001) > rhonil=1.0,
(PID.TID 0000.0001) > rhoConst=1.0,
(PID.TID 0000.0001) > rigidLid=.FALSE.,
(PID.TID 0000.0001) > implicitFreeSurface=.TRUE.,
(PID.TID 0000.0001) > staggerTimeStep=.TRUE.,
(PID.TID 0000.0001) > nonHydrostatic=.FALSE.,
(PID.TID 0000.0001) > readBinaryPrec=64,
(PID.TID 0000.0001) > writeBinaryPrec=64,
(PID.TID 0000.0001) > hFacMin=1.0,
(PID.TID 0000.0001) > zonal_filt_lat=45.0,
(PID.TID 0000.0001) > saltAdvScheme=77,
(PID.TID 0000.0001) > &
(PID.TID 0000.0001) >
(PID.TID 0000.0001) ># Elliptic solver parameters
(PID.TID 0000.0001) > &PARM02
(PID.TID 0000.0001) > cg2dMaxIters=200,
(PID.TID 0000.0001) >#cg2dTargetResidual=1.E-12,
(PID.TID 0000.0001) > cg2dTargetResWunit=1.E-17,
(PID.TID 0000.0001) > &
(PID.TID 0000.0001) >
(PID.TID 0000.0001) ># Time stepping parameters
(PID.TID 0000.0001) > &PARM03
(PID.TID 0000.0001) > niter0=25920,
(PID.TID 0000.0001) > nTimeSteps=10,
(PID.TID 0000.0001) >#endTime=31104000.,
(PID.TID 0000.0001) > deltaT=300.0,
(PID.TID 0000.0001) > abEps=0.1,
(PID.TID 0000.0001) > cAdjFreq=0.,
(PID.TID 0000.0001) > pChkptFreq=2592000.0,
(PID.TID 0000.0001) > chkptFreq=0.0,
(PID.TID 0000.0001) > dumpFreq=2592000.0,
(PID.TID 0000.0001) > taveFreq=2592000.0,
(PID.TID 0000.0001) > monitorFreq=1.0,
(PID.TID 0000.0001) > &
(PID.TID 0000.0001) >
(PID.TID 0000.0001) ># Gridding parameters
(PID.TID 0000.0001) > &PARM04
(PID.TID 0000.0001) > usingCartesianGrid=.FALSE.,
(PID.TID 0000.0001) > usingSphericalPolarGrid=.TRUE.,
(PID.TID 0000.0001) > delX=128*2.8125,
(PID.TID 0000.0001) > delY=64*2.8125,
(PID.TID 0000.0001) > delR=1.E4, 2.5E4, 3.E4, 2.E4, 1.5E4,
(PID.TID 0000.0001) > Ro_SeaLevel=1.E5,
(PID.TID 0000.0001) > groundAtK1=.TRUE.,
(PID.TID 0000.0001) > phiMin=-90.,
(PID.TID 0000.0001) > rSphere=6370.E3,
(PID.TID 0000.0001) > &
(PID.TID 0000.0001) >
(PID.TID 0000.0001) ># Input datasets
(PID.TID 0000.0001) > &PARM05
(PID.TID 0000.0001) > bathyFile='orography_fullcell.bin',
(PID.TID 0000.0001) > &
(PID.TID 0000.0001) 
(PID.TID 0000.0001) %MON XC_max                       =   3.5859375000000E+02
(PID.TID 0000.0001) %MON XC_min                       =   1.4062500000000E+00
(PID.TID 0000.0001) %MON XC_mean                      =   1.8000000000000E+02
(PID.TID 0000.0001) %MON XC_sd                        =   1.0391987692599E+02
(PID.TID 0000.0001) %MON XG_max                       =   3.5718750000000E+02
(PID.TID 0000.0001) %MON XG_min                       =   2.8125000000000E+00
(PID.TID 0000.0001) %MON XG_mean                      =   1.8000000000000E+02
(PID.TID 0000.0001) %MON XG_sd                        =   1.0310795313651E+02
(PID.TID 0000.0001) %MON DXC_max                      =   3.1259246843155E+05
(PID.TID 0000.0001) %MON DXC_min                      =   7.6737143816223E+03
(PID.TID 0000.0001) %MON DXC_mean                     =   1.9908248704234E+05
(PID.TID 0000.0001) %MON DXC_sd                       =   9.6190602240068E+04
(PID.TID 0000.0001) %MON DXF_max                      =   3.1259246843155E+05
(PID.TID 0000.0001) %MON DXF_min                      =   7.6737143816223E+03
(PID.TID 0000.0001) %MON DXF_mean                     =   1.9908248704234E+05
(PID.TID 0000.0001) %MON DXF_sd                       =   9.6190602240068E+04
(PID.TID 0000.0001) %MON DXG_max                      =   3.1268664380261E+05
(PID.TID 0000.0001) %MON DXG_min                      =   1.5342806404640E+04
(PID.TID 0000.0001) %MON DXG_mean                     =   2.0218161485138E+05
(PID.TID 0000.0001) %MON DXG_sd                       =   9.3728538420912E+04
(PID.TID 0000.0001) %MON DXV_max                      =   3.1268664380261E+05
(PID.TID 0000.0001) %MON DXV_min                      =   1.5342806404640E+04
(PID.TID 0000.0001) %MON DXV_mean                     =   2.0218161485138E+05
(PID.TID 0000.0001) %MON DXV_sd                       =   9.3728538420912E+04
(PID.TID 0000.0001) %MON YC_max                       =   8.8593750000000E+01
(PID.TID 0000.0001) %MON YC_min                       =  -8.8593750000000E+01
(PID.TID 0000.0001) %MON YC_mean                      =   0.0000000000000E+00
(PID.TID 0000.0001) %MON YC_sd                        =   5.1955180880375E+01
(PID.TID 0000.0001) %MON YG_max                       =   8.7187500000000E+01
(PID.TID 0000.0001) %MON YG_min                       =  -9.0000000000000E+01
(PID.TID 0000.0001) %MON YG_mean                      =  -1.4285714285714E+00
(PID.TID 0000.0001) %MON YG_sd                        =   5.2365595692639E+01
(PID.TID 0000.0001) %MON DYC_max                      =   3.1268664380261E+05
(PID.TID 0000.0001) %MON DYC_min                      =   3.1268664380261E+05
(PID.TID 0000.0001) %MON DYC_mean                     =   3.1268664380263E+05
(PID.TID 0000.0001) %MON DYC_sd                       =   2.4156179279089E-08
(PID.TID 0000.0001) %MON DYF_max                      =   3.1268664380261E+05
(PID.TID 0000.0001) %MON DYF_min                      =   3.1268664380261E+05
(PID.TID 0000.0001) %MON DYF_mean                     =   3.1268664380263E+05
(PID.TID 0000.0001) %MON DYF_sd                       =   2.4156179279089E-08
(PID.TID 0000.0001) %MON DYG_max                      =   3.1268664380261E+05
(PID.TID 0000.0001) %MON DYG_min                      =   3.1268664380261E+05
(PID.TID 0000.0001) %MON DYG_mean                     =   3.1268664380263E+05
(PID.TID 0000.0001) %MON DYG_sd                       =   2.4156179279089E-08
(PID.TID 0000.0001) %MON DYU_max                      =   3.1268664380261E+05
(PID.TID 0000.0001) %MON DYU_min                      =   3.1268664380261E+05
(PID.TID 0000.0001) %MON DYU_mean                     =   3.1268664380263E+05
(PID.TID 0000.0001) %MON DYU_sd                       =   2.4156179279089E-08
(PID.TID 0000.0001) %MON RA_max                       =   9.7733676797555E+10
(PID.TID 0000.0001) %MON RA_min                       =   2.3992270990190E+09
(PID.TID 0000.0001) %MON RA_mean                      =   6.2244185031957E+10
(PID.TID 0000.0001) %MON RA_sd                        =   3.0074496923945E+10
(PID.TID 0000.0001) %MON RAW_max                      =   9.7733676797555E+10
(PID.TID 0000.0001) %MON RAW_min                      =   2.3992270990190E+09
(PID.TID 0000.0001) %MON RAW_mean                     =   6.2244185031957E+10
(PID.TID 0000.0001) %MON RAW_sd                       =   3.0074496923945E+10
(PID.TID 0000.0001) %MON RAS_max                      =   9.7763121221868E+10
(PID.TID 0000.0001) %MON RAS_min                      =   4.7970089933466E+09
(PID.TID 0000.0001) %MON RAS_mean                     =   6.3213143616158E+10
(PID.TID 0000.0001) %MON RAS_sd                       =   2.9304719741649E+10
(PID.TID 0000.0001) %MON RAZ_max                      =   9.7763121221868E+10
(PID.TID 0000.0001) %MON RAZ_min                      =   4.7970089933466E+09
(PID.TID 0000.0001) %MON RAZ_mean                     =   6.3213143616158E+10
(PID.TID 0000.0001) %MON RAZ_sd                       =   2.9304719741649E+10
(PID.TID 0000.0001)  MDSREADFIELD: opening global file: orography_fullcell.bin
(PID.TID 0000.0001) // =======================================================
(PID.TID 0000.0001) // Field Model R_low (ini_masks_etc) at iteration          1
(PID.TID 0000.0001) // CMIN =          1.000000000000000E+32
(PID.TID 0000.0001) // CMAX =         -1.000000000000000E+32
(PID.TID 0000.0001) // CINT =          0.000000000000000E+00
(PID.TID 0000.0001) // SYMBOLS (CMIN->CMAX): -abcdefghijklmnopqrstuvwxyz+
(PID.TID 0000.0001) //                  0.0: .
(PID.TID 0000.0001) // RANGE I (Lo:Hi:Step):(  -4: 133:   1)
(PID.TID 0000.0001) // RANGE J (Lo:Hi:Step):(  69:  -4:  -1)
(PID.TID 0000.0001) // RANGE K (Lo:Hi:Step):(   1:   1:   1)
(PID.TID 0000.0001) // =======================================================
(PID.TID 0000.0001) K =   1
(PID.TID 0000.0001) //                I=5       I=15      I=25      I=35      I=45      I=55      I=65      I=75      I=85      I=95      I=105     I=115     I=125
(PID.TID 0000.0001) // |--J--|****01234|678901234|678901234|678901234|678901234|678901234|678901234|678901234|678901234|678901234|678901234|678901234|678901234|67890123
(PID.TID 0000.0001) //     69 ..........................................................................................................................................
(PID.TID 0000.0001) //     68 ..........................................................................................................................................
(PID.TID 0000.0001) //     67 ..........................................................................................................................................
(PID.TID 0000.0001) //     66 ..........................................................................................................................................
(PID.TID 0000.0001) //     65 ..........................................................................................................................................
(PID.TID 0000.0001) //     64 ..........................................................................................................................................
(PID.TID 0000.0001) //     63 ..........................................................................................................................................
(PID.TID 0000.0001) //     62 ..........................................................................................................................................
(PID.TID 0000.0001) //     61 ..........................................................................................................................................
(PID.TID 0000.0001) //     60 ..........................................................................................................................................
(PID.TID 0000.0001) //     59 ..........................................................................................................................................
(PID.TID 0000.0001) //     58 ..........................................................................................................................................
(PID.TID 0000.0001) //     57 ..........................................................................................................................................
(PID.TID 0000.0001) //     56 ..........................................................................................................................................
(PID.TID 0000.0001) //     55 ..........................................................................................................................................
(PID.TID 0000.0001) //     54 ..........................................................................................................................................
(PID.TID 0000.0001) //     53 ..........................................................................................................................................
(PID.TID 0000.0001) //     52 ..........................................................................................................................................
(PID.TID 0000.0001) //     51 ..........................................................................................................................................
(PID.TID 0000.0001) //     50 ..........................................................................................................................................
(PID.TID 0000.0001) //     49 ..........................................................................................................................................
(PID.TID 0000.0001) //     48 ..........................................................................................................................................
(PID.TID 0000.0001) //     47 ..........................................................................................................................................
(PID.TID 0000.0001) //     46 ..........................................................................................................................................
(PID.TID 0000.0001) //     45 ..........................................................................................................................................
(PID.TID 0000.0001) //     44 ..........................................................................................................................................
(PID.TID 0000.0001) //     43 ..........................................................................................................................................
(PID.TID 0000.0001) //     42 ..........................................................................................................................................
(PID.TID 0000.0001) //     41 ..........................................................................................................................................
(PID.TID 0000.0001) //     40 ..........................................................................................................................................
(PID.TID 0000.0001) //     39 ..........................................................................................................................................
(PID.TID 0000.0001) //     38 ..........................................................................................................................................
(PID.TID 0000.0001) //     37 ..........................................................................................................................................
(PID.TID 0000.0001) //     36 ..........................................................................................................................................
(PID.TID 0000.0001) //     35 ..........................................................................................................................................
(PID.TID 0000.0001) //     34 ..........................................................................................................................................
(PID.TID 0000.0001) //     33 ..........................................................................................................................................
(PID.TID 0000.0001) //     32 ..........................................................................................................................................
(PID.TID 0000.0001) //     31 ..........................................................................................................................................
(PID.TID 0000.0001) //     30 ..........................................................................................................................................
(PID.TID 0000.0001) //     29 ..........................................................................................................................................
(PID.TID 0000.0001) //     28 ..........................................................................................................................................
(PID.TID 0000.0001) //     27 ..........................................................................................................................................
(PID.TID 0000.0001) //     26 ..........................................................................................................................................
(PID.TID 0000.0001) //     25 ..........................................................................................................................................
(PID.TID 0000.0001) //     24 ..........................................................................................................................................
(PID.TID 0000.0001) //     23 ..........................................................................................................................................
(PID.TID 0000.0001) //     22 ..........................................................................................................................................
(PID.TID 0000.0001) //     21 ..........................................................................................................................................
(PID.TID 0000.0001) //     20 ..........................................................................................................................................
(PID.TID 0000.0001) //     19 ..........................................................................................................................................
(PID.TID 0000.0001) //     18 ..........................................................................................................................................
(PID.TID 0000.0001) //     17 ..........................................................................................................................................
(PID.TID 0000.0001) //     16 ..........................................................................................................................................
(PID.TID 0000.0001) //     15 ..........................................................................................................................................
(PID.TID 0000.0001) //     14 ..........................................................................................................................................
(PID.TID 0000.0001) //     13 ..........................................................................................................................................
(PID.TID 0000.0001) //     12 ..........................................................................................................................................
(PID.TID 0000.0001) //     11 ..........................................................................................................................................
(PID.TID 0000.0001) //     10 ..........................................................................................................................................
(PID.TID 0000.0001) //      9 ..........................................................................................................................................
(PID.TID 0000.0001) //      8 ..........................................................................................................................................
(PID.TID 0000.0001) //      7 ..........................................................................................................................................
(PID.TID 0000.0001) //      6 ..........................................................................................................................................
(PID.TID 0000.0001) //      5 ..........................................................................................................................................
(PID.TID 0000.0001) //      4 ..........................................................................................................................................
(PID.TID 0000.0001) //      3 ..........................................................................................................................................
(PID.TID 0000.0001) //      2 ..........................................................................................................................................
(PID.TID 0000.0001) //      1 ..........................................................................................................................................
(PID.TID 0000.0001) //      0 ..........................................................................................................................................
(PID.TID 0000.0001) //     -1 ..........................................................................................................................................
(PID.TID 0000.0001) //     -2 ..........................................................................................................................................
(PID.TID 0000.0001) //     -3 ..........................................................................................................................................
(PID.TID 0000.0001) //     -4 ..........................................................................................................................................
(PID.TID 0000.0001) // =======================================================
(PID.TID 0000.0001) // END OF FIELD                                          =
(PID.TID 0000.0001) // =======================================================
(PID.TID 0000.0001) 
(PID.TID 0000.0001) // =======================================================
(PID.TID 0000.0001) // Field Model Ro_surf (ini_masks_etc) at iteration          1
(PID.TID 0000.0001) // CMIN =          6.500000000000000E+04
(PID.TID 0000.0001) // CMAX =          1.000000000000000E+05
(PID.TID 0000.0001) // CINT =          1.296296296296296E+03
(PID.TID 0000.0001) // SYMBOLS (CMIN->CMAX): -abcdefghijklmnopqrstuvwxyz+
(PID.TID 0000.0001) //                  0.0: .
(PID.TID 0000.0001) // RANGE I (Lo:Hi:Step):(  -4: 133:   1)
(PID.TID 0000.0001) // RANGE J (Lo:Hi:Step):(  69:  -4:  -1)
(PID.TID 0000.0001) // RANGE K (Lo:Hi:Step):(   1:   1:   1)
(PID.TID 0000.0001) // =======================================================
(PID.TID 0000.0001) K =   1
(PID.TID 0000.0001) //                I=5       I=15      I=25      I=35      I=45      I=55      I=65      I=75      I=85      I=95      I=105     I=115     I=125
(PID.TID 0000.0001) // |--J--|****01234|678901234|678901234|678901234|678901234|678901234|678901234|678901234|678901234|678901234|678901234|678901234|678901234|67890123
(PID.TID 0000.0001) //     69 ..........................................................................................................................................
(PID.TID 0000.0001) //     68 ..........................................................................................................................................
(PID.TID 0000.0001) //     67 ..........................................................................................................................................
(PID.TID 0000.0001) //     66 ..........................................................................................................................................
(PID.TID 0000.0001) //     65 ..........................................................................................................................................
(PID.TID 0000.0001) //     64 ++++++++++++++++++++++++++++++++++++++++++++++++++++++++++++++++++++++++++++++++++++++++++++++++++++++++++++++++++++++++++++++++++++++++++
(PID.TID 0000.0001) //     63 ++++++++++++++++++++++++++++++++++++++++++++++++++++++++++++++++++++++++++++++++++++++++++++++++++++++++++++++++++++++++++++++++++++++++++
(PID.TID 0000.0001) //     62 +++++++++++++++++++++++++++++++++++++++++++++++++++++++++++++++++++++++++++++++++++++++++++++++++++++++++ss+++++++++++++s+++++++++++++++++
(PID.TID 0000.0001) //     61 +++++++++++++++++++++++++++++++++++++++++++++++++++++++++++++++++++++++++++++++++++++++++++++++++++++sssssss++ssssssssssssssss++++++++++++
(PID.TID 0000.0001) //     60 +++++++++++++++++++++++++++++++++++++++++++++++++++++++++++++++++++++++++++++++++++++++++++++++++++++++ss+++sssss---------sss+++++++++++++
(PID.TID 0000.0001) //     59 +++++++++++++++++++++++++++++++++++++++++++++++++++++++++++++++++++++++++++++++++++++++++++++++++++++++++++++++++ss--------sss++++++++++++
(PID.TID 0000.0001) //     58 ++++++++++++++++++++++++++++++++++++++++++++++++++++++++++++++++++++++++++++++++++++++++++++++++++++++++++++++++++ss------ss++++++++++++++
(PID.TID 0000.0001) //     57 +++++++++++ss++++++++++++++++++++++++ssss+++++++++ss+ss++++++++++++s++++++++ssssssss+++++++++++++++++++++++++++++++ss----ss+++++++++++++++
(PID.TID 0000.0001) //     56 ++++++++++ss++++++++++++++++++++++++++sssssss+++++ssssssss+++sssss++++++++++++ss++sssss++++++++++++++++++++++++++++s--ss++++++++++++++++++
(PID.TID 0000.0001) //     55 ++++++++sss+++++++++++++++++++++++++++ssss++++++++++ssssssssssss++s+++++++++++sssssssssss++++++++++++++++++++++++++s-s++++++++++++++++++ss
(PID.TID 0000.0001) //     54 +++++++ss+++++++++++++++++++++++++++++s++ssssss++s+++sssssss++++++++++++++++++s++sssssssss+++++s+++++++++++++++++++++++++++++++++++++++ss+
(PID.TID 0000.0001) //     53 ++++++++++++++++++++++++++++++++++++++++++sssssssssssss++++++++++++++++++++++++++++++ssssssss+ss++++++++++++++++++++++++++++++++++++++++++
(PID.TID 0000.0001) //     52 ++++++++++++++++++++++++++++++++++++sssssssssssssssss++++++++s+++++++++++++++++++++++++sssssssss+++++++++++ssss+++++++++++++++++++++++++++
(PID.TID 0000.0001) //     51 +++++++++++++++++++++++++++++++++++sssssssssssssss+sss++++++++++++++++++++++++++++++++++sssssssss++++++++++ssss+++++++++++++++++++++++++++
(PID.TID 0000.0001) //     50 +++++++++ssss++++++++++++++++sssssss-ss-sssssssss+++++s++++++++++++++++++++++++++++++++++sssssssss+++++++++++++++++++++++++++++++++++++++s
(PID.TID 0000.0001) //     49 ++++++sssss++ss+++++++++++++++sssssssss--ssssssss++++s+++++++++++++++++++++++++++++++++++sssssssss++++++++++++++++++++++++++++++++++++ssss
(PID.TID 0000.0001) //     48 +++++s+++++sss+++++sss+++++++ssss--sssssssssssss++ss+++++++++++++++++++++++++++++++++++++ssss-sssss++++++++++++++++++++++++++++++++++s++++
(PID.TID 0000.0001) //     47 ++ssss++++++s+++ssssss+++++++ss--sssssssssssssss+ss++++++++++++++++++++++++++++++++++++++sssss--sss+++++++++++++++++++++++++++++++ssss++++
(PID.TID 0000.0001) //     46 +++s+++++++++++sssssss+++s++ss---ss-------ssss++++++++++++++++++++++++++++++++++++++++++++ssss--ss++++++s++++++++++++++++++++++++++s++++++
(PID.TID 0000.0001) //     45 +++++sss++++++++++s++sssssss--------------sss+++++++++++++++++++++++++++++++++++++++++++++ssssssss+++++s+++++++++++++++++++++++++++++sss++
(PID.TID 0000.0001) //     44 ++sssss+++++++++++ss++s-ssssss+s----------sss++++++++++++++++++++++++++++++++++++++++++++++++sssss++++++++++++++++++++++++++++++++sssss+++
(PID.TID 0000.0001) //     43 ++ssss++ss+++++++ssss++sssssss+++s--------+ss++++++++++++++++++++++++++++++++++++++++++++++++ssss+++++++++++++++++++++++++++++++++ssss++ss
(PID.TID 0000.0001) //     42 +s++++sssss+++++++ssss+++ssss++++++sssss--sss+s+++++++++++++++++++++++++++++++++++++++++++++++sss++++++++++++++++++++++++++++++++s++++ssss
(PID.TID 0000.0001) //     41 ++++++sssssssss++++sss+++++++++ss+ss++sssss++++++++++++++++++++++++++++++++++++++++++++++++++++sss++++++++++++++++++++++++++++++++++++ssss
(PID.TID 0000.0001) //     40 ++++++sssssssss++s+sss++++++++++++++++ssss++++++++++++++++++++++++++++++++++++++++++++++++++++++ss++++++++++++++++++++++++++++++++++++ssss
(PID.TID 0000.0001) //     39 ++++++ssss++sss++s++ssss+++++++ss+++++++ss++++++++++++++++++++++++++++++++++++++++++++++++++++++sss+++++++++++++++++++++++++++++++++++ssss
(PID.TID 0000.0001) //     38 ++++++++s+++sssssss+sss+++++++++s+++++++++++++++++++++++++++++++++++++++++++++++++++++++++++++++++++ss++++++++++++++++++++++++++++++++++s+
(PID.TID 0000.0001) //     37 +++++++s++++ssssssss++++++++++++s+++++++++++++++++++++++++++++++++++++++++++++++++++++++++++++++++++++s++++++++++++++++++++++++++++++++s++
(PID.TID 0000.0001) //     36 +ss++++sss++sss++s-ssss+++++++++++++++++++++++++++++++++++++++++++++++++++++++++++++++++++++++++++++++++++++s++++++++++++++++++++ss++++sss
(PID.TID 0000.0001) //     35 ++++++++ssssssss+sssss++++++++++++++++++++++++++++++++++++++++++++++++++++++++++++++++++++++++++++++++++++ss+s++++++++++++++++++++++++++ss
(PID.TID 0000.0001) //     34 +++++++++sssssssssss+++++++++++++++++++s++++++s+++++++++++++++++++++++++++++++++++++++++++++++++++++++++++s++sss+++++++++++++++++++++++++s
(PID.TID 0000.0001) //     33 +++++++++ss+++sssss++++++++++++++++++++++++++ss++++++++++++++++++++++++++++++++++++++++++++++++++++++++++ss++++++++++++++++++++++++++++++s
(PID.TID 0000.0001) //     32 +++++++++ss++sss+ss+++++++++++++++++++++++++++++++++++++++++++++++++++++++++++++++++++++++++++++++++++++ss+++++++++++++++++++++++++++++++s
(PID.TID 0000.0001) //     31 ++++++++++sssssssss++++++++++++++++++++++++++++++++++sss++++++++++++++++++++++++++++++++++++++++++++++++ss++++++++++++++++++++++++++++++++
(PID.TID 0000.0001) //     30 ++++++++++sssssssss+++++++++++++++++++++++++++++++++++++s++++++++++++++++++++++++++++++++++++++++++++++++s++++++++++++s+++++++++++++++++++
(PID.TID 0000.0001) //     29 ++++++++++sssssssss++++++++++++++++++++++++++++++++++++++++++++++++++++++++++++++++++++++++++++++++++++++-s+++++++++sss+++++++++++++++++++
(PID.TID 0000.0001) //     28 ++++++++++sssssssss++++++++++++++++++++++++++++++++++++++++++++++++++++++++++++++++++++++++++++++++++++++s-s++++++++sss+++++++++++++++++++
(PID.TID 0000.0001) //     27 +++++++++ssssssssss+++s+++++++++++++++++++++++++++++++++++++++++++++++++++++++++++++++++++++++++++++++++++s--s+++s+ssss++++++++++++++++++s
(PID.TID 0000.0001) //     26 +++++++++ssssssss++++s++++++++++++++++++++++++++++++++++s+++++++++++++++++++++++++++++++++++++++++++++++++++--s+++ssss+++++++++++++++++++s
(PID.TID 0000.0001) //     25 ++++++++++sssssss++++s+++++++++++++++++++++++++++++ss+++++++++++++++++++++++++++++++++++++++++++++++++++++++--s++++sss++++++++++++++++++++
(PID.TID 0000.0001) //     24 ++++++++++ssssss+++++s++++++++++++++++++++++++sss+sss+++++++++++++++++++++++++++++++++++++++++++++++++++++++--++++ss++++++++++++++++++++++
(PID.TID 0000.0001) //     23 ++++++++++ssssss+++++++++++++++++++++++++++++++sssss++++++++++++++++++++++++++++++++++++++++++++++++++++++++--++++ss++++++++++++++++++++++
(PID.TID 0000.0001) //     22 +++++++++++sssss+++++++++++++++++++++++++++++++ss+++++++++s+++++++++++++++++++++++++++++++++++++++++++++++++-s++++++++++++++++++++++++++++
(PID.TID 0000.0001) //     21 ++++++++++++sss+++++++++++++++++++++++++++++++++++++++++++s++++++++++++++++++++++++++++++++++++++++++++++++sss++++++++++++++++++++++++++++
(PID.TID 0000.0001) //     20 +++++++++++++++++++++++++++++++++++++++++++++++++++++++++s+++++++++++++++++++++++++++++++++++++++++++++++++ss+++++++++++++++++++++++++++++
(PID.TID 0000.0001) //     19 +++++++++++++++++++++++++++++++++++++++++++++++++++++++++++++++++++++++++++++++++++++++++++++++++++++++++++ss+++++++++++++++++++++++++++++
(PID.TID 0000.0001) //     18 +++++++++++++++++++++++++++++++++++++++++++++++++++++++++++++++++++++++++++++++++++++++++++++++++++++++++++ss+++++++++++++++++++++++++++++
(PID.TID 0000.0001) //     17 +++++++++++++++++++++++++++++++++++++++++++++++++++++++++++++++++++++++++++++++++++++++++++++++++++++++++++ss+++++++++++++++++++++++++++++
(PID.TID 0000.0001) //     16 +++++++++++++++++++++++++++++++++++++++++++++++++++++++++++++++++++++++++++++++++++++++++++++++++++++++++++ss+++++++++++++++++++++++++++++
(PID.TID 0000.0001) //     15 ++++++++++++++++++++++++++++++++++++++++++++++++++++++++++++++++++++++++++++++++++++++++++++++++++++++++++ss++++++++++++++++++++++++++++++
(PID.TID 0000.0001) //     14 ++++++++++++++++++++++++++++++++++++++++++++++++++++++++++++++++++++++++++++++++++++++++++++++++++++++++++++++++++++++++++++++++++++++++++
(PID.TID 0000.0001) //     13 ++++++++++++++++++++++++++++++++++++++++++++++++++++++++++++++++++++++++++++++++++++++++++++++++++++++++++++++++++++++++++++++++++++++++++
(PID.TID 0000.0001) //     12 ++++++++++++++++++++++++++++++++++++++++++++++++++++++++++++++++++++++++++++++++++++++++++++++++++++++++++++++++++++++++++++++++++++++++++
(PID.TID 0000.0001) //     11 ++++++++++++++++++++++++++++++++++++++++++++++++++++++++++++++++++++++++++++++++++++++++++++++++++++++++++++++++++++++++++++++++++++++++++
(PID.TID 0000.0001) //     10 ++++++++++++++++++++++++++++++++++++++++++++++++++++++++++++++++++++++++++++++++++++++++++++++++++++++++++++++++++++++++++++++++++++++++++
(PID.TID 0000.0001) //      9 +++++++++++++++++++++++++++++++++++++++++s++++++++++++++++++++++++++++++++++++++++++++++++++++++++++++++++++++++++++++++++++++++++++++++++
(PID.TID 0000.0001) //      8 ++++++++++++++++++++ssss-ssss++++ssss-------ssssssss---sssss+++++++++++++++++++++++++++++++++++++++++++++++++s++++++++++++++++++++++++++++
(PID.TID 0000.0001) //      7 ++sssssssssssssssss--------sssss--------------------------sssssss+++++++++++++++++++++++++++++++++++++++++++sss+++++++++++++++++++ssssssss
(PID.TID 0000.0001) //      6 s-------------------------ssss------------------------------ssss++++++++++++++++++++++++++++++++++sssssssssssss++++++++++++++ssss---------
(PID.TID 0000.0001) //      5 -------------------------------------------------------------ss++++++++++++++++++sssssssssssssssssssssss++++++++++++++++++ssss------------
(PID.TID 0000.0001) //      4 ----------------------------------------------------------ssss++++++++++++++++++++sssssssssssssss---sssss+++++++++++++++++ssss------------
(PID.TID 0000.0001) //      3 ------------------------------------------------------------ssssss++++++++++++++++ssssssssssssss----sssssssss+++sssssssssssss-------------
(PID.TID 0000.0001) //      2 -----------------------------------------------------------------------sssssssssssssssssssssssssssssssssssssssssssssssss------------------
(PID.TID 0000.0001) //      1 ------------------------------------------------------------------------------------------------------------------------------------------
(PID.TID 0000.0001) //      0 ..........................................................................................................................................
(PID.TID 0000.0001) //     -1 ..........................................................................................................................................
(PID.TID 0000.0001) //     -2 ..........................................................................................................................................
(PID.TID 0000.0001) //     -3 ..........................................................................................................................................
(PID.TID 0000.0001) //     -4 ..........................................................................................................................................
(PID.TID 0000.0001) // =======================================================
(PID.TID 0000.0001) // END OF FIELD                                          =
(PID.TID 0000.0001) // =======================================================
(PID.TID 0000.0001) 
(PID.TID 0000.0001) // =======================================================
(PID.TID 0000.0001) // Field hFacC at iteration          1
(PID.TID 0000.0001) // CMIN =          1.000000000000000E+00
(PID.TID 0000.0001) // CMAX =          1.000000000000000E+00
(PID.TID 0000.0001) // CINT =          0.000000000000000E+00
(PID.TID 0000.0001) // SYMBOLS (CMIN->CMAX): -abcdefghijklmnopqrstuvwxyz+
(PID.TID 0000.0001) //                  0.0: .
(PID.TID 0000.0001) // RANGE I (Lo:Hi:Step):(  -4: 133:   1)
(PID.TID 0000.0001) // RANGE J (Lo:Hi:Step):(  69:  -4:  -1)
(PID.TID 0000.0001) // RANGE K (Lo:Hi:Step):(   1:   1:   1)
(PID.TID 0000.0001) // =======================================================
(PID.TID 0000.0001) K =   1
(PID.TID 0000.0001) //                I=5       I=15      I=25      I=35      I=45      I=55      I=65      I=75      I=85      I=95      I=105     I=115     I=125
(PID.TID 0000.0001) // |--J--|****01234|678901234|678901234|678901234|678901234|678901234|678901234|678901234|678901234|678901234|678901234|678901234|678901234|67890123
(PID.TID 0000.0001) //     69 ..........................................................................................................................................
(PID.TID 0000.0001) //     68 ..........................................................................................................................................
(PID.TID 0000.0001) //     67 ..........................................................................................................................................
(PID.TID 0000.0001) //     66 ..........................................................................................................................................
(PID.TID 0000.0001) //     65 ..........................................................................................................................................
(PID.TID 0000.0001) //     64 ------------------------------------------------------------------------------------------------------------------------------------------
(PID.TID 0000.0001) //     63 ------------------------------------------------------------------------------------------------------------------------------------------
(PID.TID 0000.0001) //     62 ---------------------------------------------------------------------------------------------------------..-------------.-----------------
(PID.TID 0000.0001) //     61 -----------------------------------------------------------------------------------------------------.......--................------------
(PID.TID 0000.0001) //     60 -------------------------------------------------------------------------------------------------------..---.................-------------
(PID.TID 0000.0001) //     59 -----------------------------------------------------------------------------------------------------------------.............------------
(PID.TID 0000.0001) //     58 ------------------------------------------------------------------------------------------------------------------..........--------------
(PID.TID 0000.0001) //     57 -----------..------------------------....---------..-..------------.--------........-------------------------------........---------------
(PID.TID 0000.0001) //     56 ----------..--------------------------.......-----........---.....------------..--.....----------------------------.....------------------
(PID.TID 0000.0001) //     55 --------...---------------------------....----------............--.-----------...........--------------------------...------------------..
(PID.TID 0000.0001) //     54 -------..-----------------------------.--......--.---.......------------------.--.........-----.---------------------------------------..-
(PID.TID 0000.0001) //     53 ------------------------------------------.............------------------------------........-..------------------------------------------
(PID.TID 0000.0001) //     52 ------------------------------------.................--------.-------------------------.........-----------....---------------------------
(PID.TID 0000.0001) //     51 -----------------------------------...............-...----------------------------------.........----------....---------------------------
(PID.TID 0000.0001) //     50 ---------....----------------....................-----.----------------------------------.........---------------------------------------.
(PID.TID 0000.0001) //     49 ------.....--..---------------...................----.-----------------------------------.........------------------------------------....
(PID.TID 0000.0001) //     48 -----.-----...-----...-------...................--..-------------------------------------..........----------------------------------.----
(PID.TID 0000.0001) //     47 --....------.---......-------...................-..--------------------------------------..........-------------------------------....----
(PID.TID 0000.0001) //     46 ---.-----------.......---.--..................--------------------------------------------........------.--------------------------.------
(PID.TID 0000.0001) //     45 -----...----------.--........................---------------------------------------------........-----.-----------------------------...--
(PID.TID 0000.0001) //     44 --.....-----------..--........-..............------------------------------------------------.....--------------------------------.....---
(PID.TID 0000.0001) //     43 --....--..-------....--.......---.........-..------------------------------------------------....---------------------------------....--..
(PID.TID 0000.0001) //     42 -.----.....-------....---....------..........-.-----------------------------------------------...--------------------------------.----....
(PID.TID 0000.0001) //     41 ------.........----...---------..-..--.....----------------------------------------------------...------------------------------------....
(PID.TID 0000.0001) //     40 ------.........--.-...----------------....------------------------------------------------------..------------------------------------....
(PID.TID 0000.0001) //     39 ------....--...--.--....-------..-------..------------------------------------------------------...-----------------------------------....
(PID.TID 0000.0001) //     38 --------.---.......-...---------.-------------------------------------------------------------------..----------------------------------.-
(PID.TID 0000.0001) //     37 -------.----........------------.---------------------------------------------------------------------.--------------------------------.--
(PID.TID 0000.0001) //     36 -..----...--...--......-------------------------------------------------------------------------------------.--------------------..----...
(PID.TID 0000.0001) //     35 --------........-.....------------------------------------------------------------------------------------..-.--------------------------..
(PID.TID 0000.0001) //     34 ---------...........-------------------.------.-----------------------------------------------------------.--...-------------------------.
(PID.TID 0000.0001) //     33 ---------..---.....--------------------------..----------------------------------------------------------..------------------------------.
(PID.TID 0000.0001) //     32 ---------..--...-..-------------------------------------------------------------------------------------..-------------------------------.
(PID.TID 0000.0001) //     31 ----------.........----------------------------------...------------------------------------------------..--------------------------------
(PID.TID 0000.0001) //     30 ----------.........-------------------------------------.------------------------------------------------.------------.-------------------
(PID.TID 0000.0001) //     29 ----------.........--------------------------------------------------------------------------------------..---------...-------------------
(PID.TID 0000.0001) //     28 ----------.........--------------------------------------------------------------------------------------...--------...-------------------
(PID.TID 0000.0001) //     27 ---------..........---.-----------------------------------------------------------------------------------....---.-....------------------.
(PID.TID 0000.0001) //     26 ---------........----.----------------------------------.---------------------------------------------------...---....-------------------.
(PID.TID 0000.0001) //     25 ----------.......----.-----------------------------..-------------------------------------------------------...----...--------------------
(PID.TID 0000.0001) //     24 ----------......-----.------------------------...-...-------------------------------------------------------..----..----------------------
(PID.TID 0000.0001) //     23 ----------......-------------------------------.....--------------------------------------------------------..----..----------------------
(PID.TID 0000.0001) //     22 -----------.....-------------------------------..---------.-------------------------------------------------..----------------------------
(PID.TID 0000.0001) //     21 ------------...-------------------------------------------.------------------------------------------------...----------------------------
(PID.TID 0000.0001) //     20 ---------------------------------------------------------.-------------------------------------------------..-----------------------------
(PID.TID 0000.0001) //     19 -----------------------------------------------------------------------------------------------------------..-----------------------------
(PID.TID 0000.0001) //     18 -----------------------------------------------------------------------------------------------------------..-----------------------------
(PID.TID 0000.0001) //     17 -----------------------------------------------------------------------------------------------------------..-----------------------------
(PID.TID 0000.0001) //     16 -----------------------------------------------------------------------------------------------------------..-----------------------------
(PID.TID 0000.0001) //     15 ----------------------------------------------------------------------------------------------------------..------------------------------
(PID.TID 0000.0001) //     14 ------------------------------------------------------------------------------------------------------------------------------------------
(PID.TID 0000.0001) //     13 ------------------------------------------------------------------------------------------------------------------------------------------
(PID.TID 0000.0001) //     12 ------------------------------------------------------------------------------------------------------------------------------------------
(PID.TID 0000.0001) //     11 ------------------------------------------------------------------------------------------------------------------------------------------
(PID.TID 0000.0001) //     10 ------------------------------------------------------------------------------------------------------------------------------------------
(PID.TID 0000.0001) //      9 -----------------------------------------.------------------------------------------------------------------------------------------------
(PID.TID 0000.0001) //      8 --------------------.........----...........................-------------------------------------------------.----------------------------
(PID.TID 0000.0001) //      7 --...............................................................-------------------------------------------...-------------------........
(PID.TID 0000.0001) //      6 ................................................................----------------------------------.............--------------.............
(PID.TID 0000.0001) //      5 ...............................................................------------------.......................------------------................
(PID.TID 0000.0001) //      4 ..............................................................--------------------.......................-----------------................
(PID.TID 0000.0001) //      3 ..................................................................----------------...........................---..........................
(PID.TID 0000.0001) //      2 ..........................................................................................................................................
(PID.TID 0000.0001) //      1 ..........................................................................................................................................
(PID.TID 0000.0001) //      0 ..........................................................................................................................................
(PID.TID 0000.0001) //     -1 ..........................................................................................................................................
(PID.TID 0000.0001) //     -2 ..........................................................................................................................................
(PID.TID 0000.0001) //     -3 ..........................................................................................................................................
(PID.TID 0000.0001) //     -4 ..........................................................................................................................................
(PID.TID 0000.0001) // =======================================================
(PID.TID 0000.0001) // END OF FIELD                                          =
(PID.TID 0000.0001) // =======================================================
(PID.TID 0000.0001) 
(PID.TID 0000.0001) // =======================================================
(PID.TID 0000.0001) // Field hFacW at iteration          1
(PID.TID 0000.0001) // CMIN =          1.000000000000000E+00
(PID.TID 0000.0001) // CMAX =          1.000000000000000E+00
(PID.TID 0000.0001) // CINT =          0.000000000000000E+00
(PID.TID 0000.0001) // SYMBOLS (CMIN->CMAX): -abcdefghijklmnopqrstuvwxyz+
(PID.TID 0000.0001) //                  0.0: .
(PID.TID 0000.0001) // RANGE I (Lo:Hi:Step):(  -4: 133:   1)
(PID.TID 0000.0001) // RANGE J (Lo:Hi:Step):(  69:  -4:  -1)
(PID.TID 0000.0001) // RANGE K (Lo:Hi:Step):(   1:   1:   1)
(PID.TID 0000.0001) // =======================================================
(PID.TID 0000.0001) K =   1
(PID.TID 0000.0001) //                I=5       I=15      I=25      I=35      I=45      I=55      I=65      I=75      I=85      I=95      I=105     I=115     I=125
(PID.TID 0000.0001) // |--J--|****01234|678901234|678901234|678901234|678901234|678901234|678901234|678901234|678901234|678901234|678901234|678901234|678901234|67890123
(PID.TID 0000.0001) //     69 ................................................................-----------------........................-----------------................
(PID.TID 0000.0001) //     68 ...............................................................-------------------........................----------------................
(PID.TID 0000.0001) //     67 ...................................................................---------------............................--..........................
(PID.TID 0000.0001) //     66 ..........................................................................................................................................
(PID.TID 0000.0001) //     65 ..........................................................................................................................................
(PID.TID 0000.0001) //     64 ------------------------------------------------------------------------------------------------------------------------------------------
(PID.TID 0000.0001) //     63 ------------------------------------------------------------------------------------------------------------------------------------------
(PID.TID 0000.0001) //     62 ---------------------------------------------------------------------------------------------------------...------------..----------------
(PID.TID 0000.0001) //     61 -----------------------------------------------------------------------------------------------------........-.................-----------
(PID.TID 0000.0001) //     60 -------------------------------------------------------------------------------------------------------...--..................------------
(PID.TID 0000.0001) //     59 -----------------------------------------------------------------------------------------------------------------..............-----------
(PID.TID 0000.0001) //     58 ------------------------------------------------------------------------------------------------------------------...........-------------
(PID.TID 0000.0001) //     57 -----------...-----------------------.....--------......-----------..-------.........------------------------------.........--------------
(PID.TID 0000.0001) //     56 ----------...-------------------------........----.........--......-----------...-......---------------------------......-----------------
(PID.TID 0000.0001) //     55 --------....--------------------------.....---------.............-..----------............-------------------------....-----------------..
(PID.TID 0000.0001) //     54 -------...----------------------------..-.......-..--........-----------------..-..........----..--------------------------------------...
(PID.TID 0000.0001) //     53 ------------------------------------------..............-----------------------------............-----------------------------------------
(PID.TID 0000.0001) //     52 ------------------------------------..................-------..------------------------..........----------.....--------------------------
(PID.TID 0000.0001) //     51 -----------------------------------....................---------------------------------..........---------.....--------------------------
(PID.TID 0000.0001) //     50 ---------.....---------------.....................----..---------------------------------..........--------------------------------------.
(PID.TID 0000.0001) //     49 ------......-...--------------....................---..----------------------------------..........-----------------------------------....
(PID.TID 0000.0001) //     48 -----..----....----....------....................-...------------------------------------...........---------------------------------..---
(PID.TID 0000.0001) //     47 --.....-----..--.......------.......................-------------------------------------...........------------------------------.....---
(PID.TID 0000.0001) //     46 ---..----------........--..-...................-------------------------------------------.........-----..-------------------------..-----
(PID.TID 0000.0001) //     45 -----....---------..-.........................--------------------------------------------.........----..----------------------------....-
(PID.TID 0000.0001) //     44 --......----------...-........................-----------------------------------------------......-------------------------------......--
(PID.TID 0000.0001) //     43 --.....-...------.....-........--.............-----------------------------------------------.....--------------------------------.....-..
(PID.TID 0000.0001) //     42 -..---......------.....--.....-----.............----------------------------------------------....-------------------------------..---....
(PID.TID 0000.0001) //     41 ------..........---....--------......-......---------------------------------------------------....-----------------------------------....
(PID.TID 0000.0001) //     40 ------..........-......---------------.....-----------------------------------------------------...-----------------------------------....
(PID.TID 0000.0001) //     39 ------.....-....-..-.....------...------...-----------------------------------------------------....----------------------------------....
(PID.TID 0000.0001) //     38 --------..--............--------..------------------------------------------------------------------...---------------------------------..
(PID.TID 0000.0001) //     37 -------..---.........-----------..--------------------------------------------------------------------..-------------------------------..-
(PID.TID 0000.0001) //     36 -...---....-....-.......------------------------------------------------------------------------------------..-------------------...---...
(PID.TID 0000.0001) //     35 --------...............-----------------------------------------------------------------------------------.....-------------------------..
(PID.TID 0000.0001) //     34 ---------............------------------..-----..----------------------------------------------------------..-....------------------------.
(PID.TID 0000.0001) //     33 ---------...--......-------------------------...---------------------------------------------------------...-----------------------------.
(PID.TID 0000.0001) //     32 ---------...-.......------------------------------------------------------------------------------------...------------------------------.
(PID.TID 0000.0001) //     31 ----------..........---------------------------------....-----------------------------------------------...-------------------------------
(PID.TID 0000.0001) //     30 ----------..........------------------------------------..-----------------------------------------------..-----------..------------------
(PID.TID 0000.0001) //     29 ----------..........-------------------------------------------------------------------------------------...--------....------------------
(PID.TID 0000.0001) //     28 ----------..........-------------------------------------------------------------------------------------....-------....------------------
(PID.TID 0000.0001) //     27 ---------...........--..----------------------------------------------------------------------------------.....--.......-----------------.
(PID.TID 0000.0001) //     26 ---------.........---..---------------------------------..--------------------------------------------------....--.....------------------.
(PID.TID 0000.0001) //     25 ----------........---..----------------------------...------------------------------------------------------....---....-------------------
(PID.TID 0000.0001) //     24 ----------.......----..-----------------------........------------------------------------------------------...---...---------------------
(PID.TID 0000.0001) //     23 ----------.......------------------------------......-------------------------------------------------------...---...---------------------
(PID.TID 0000.0001) //     22 -----------......------------------------------...--------..------------------------------------------------...---------------------------
(PID.TID 0000.0001) //     21 ------------....------------------------------------------..-----------------------------------------------....---------------------------
(PID.TID 0000.0001) //     20 ---------------------------------------------------------..------------------------------------------------...----------------------------
(PID.TID 0000.0001) //     19 -----------------------------------------------------------------------------------------------------------...----------------------------
(PID.TID 0000.0001) //     18 -----------------------------------------------------------------------------------------------------------...----------------------------
(PID.TID 0000.0001) //     17 -----------------------------------------------------------------------------------------------------------...----------------------------
(PID.TID 0000.0001) //     16 -----------------------------------------------------------------------------------------------------------...----------------------------
(PID.TID 0000.0001) //     15 ----------------------------------------------------------------------------------------------------------...-----------------------------
(PID.TID 0000.0001) //     14 ------------------------------------------------------------------------------------------------------------------------------------------
(PID.TID 0000.0001) //     13 ------------------------------------------------------------------------------------------------------------------------------------------
(PID.TID 0000.0001) //     12 ------------------------------------------------------------------------------------------------------------------------------------------
(PID.TID 0000.0001) //     11 ------------------------------------------------------------------------------------------------------------------------------------------
(PID.TID 0000.0001) //     10 ------------------------------------------------------------------------------------------------------------------------------------------
(PID.TID 0000.0001) //      9 -----------------------------------------..-----------------------------------------------------------------------------------------------
(PID.TID 0000.0001) //      8 --------------------..........---............................------------------------------------------------..---------------------------
(PID.TID 0000.0001) //      7 --................................................................------------------------------------------....------------------........
(PID.TID 0000.0001) //      6 .................................................................---------------------------------..............-------------.............
(PID.TID 0000.0001) //      5 ................................................................-----------------........................-----------------................
(PID.TID 0000.0001) //      4 ...............................................................-------------------........................----------------................
(PID.TID 0000.0001) //      3 ...................................................................---------------............................--..........................
(PID.TID 0000.0001) //      2 ..........................................................................................................................................
(PID.TID 0000.0001) //      1 ..........................................................................................................................................
(PID.TID 0000.0001) //      0 ------------------------------------------------------------------------------------------------------------------------------------------
(PID.TID 0000.0001) //     -1 ------------------------------------------------------------------------------------------------------------------------------------------
(PID.TID 0000.0001) //     -2 ---------------------------------------------------------------------------------------------------------...------------..----------------
(PID.TID 0000.0001) //     -3 -----------------------------------------------------------------------------------------------------........-.................-----------
(PID.TID 0000.0001) //     -4 -------------------------------------------------------------------------------------------------------...--..................------------
(PID.TID 0000.0001) // =======================================================
(PID.TID 0000.0001) // END OF FIELD                                          =
(PID.TID 0000.0001) // =======================================================
(PID.TID 0000.0001) 
(PID.TID 0000.0001) // =======================================================
(PID.TID 0000.0001) // Field hFacS at iteration          1
(PID.TID 0000.0001) // CMIN =          1.000000000000000E+00
(PID.TID 0000.0001) // CMAX =          1.000000000000000E+00
(PID.TID 0000.0001) // CINT =          0.000000000000000E+00
(PID.TID 0000.0001) // SYMBOLS (CMIN->CMAX): -abcdefghijklmnopqrstuvwxyz+
(PID.TID 0000.0001) //                  0.0: .
(PID.TID 0000.0001) // RANGE I (Lo:Hi:Step):(  -4: 133:   1)
(PID.TID 0000.0001) // RANGE J (Lo:Hi:Step):(  69:  -4:  -1)
(PID.TID 0000.0001) // RANGE K (Lo:Hi:Step):(   1:   1:   1)
(PID.TID 0000.0001) // =======================================================
(PID.TID 0000.0001) K =   1
(PID.TID 0000.0001) //                I=5       I=15      I=25      I=35      I=45      I=55      I=65      I=75      I=85      I=95      I=105     I=115     I=125
(PID.TID 0000.0001) // |--J--|****01234|678901234|678901234|678901234|678901234|678901234|678901234|678901234|678901234|678901234|678901234|678901234|678901234|67890123
(PID.TID 0000.0001) //     69 ..........................................................................................................................................
(PID.TID 0000.0001) //     68 ..........................................................................................................................................
(PID.TID 0000.0001) //     67 ..........................................................................................................................................
(PID.TID 0000.0001) //     66 ..........................................................................................................................................
(PID.TID 0000.0001) //     65 ..........................................................................................................................................
(PID.TID 0000.0001) //     64 ------------------------------------------------------------------------------------------------------------------------------------------
(PID.TID 0000.0001) //     63 ---------------------------------------------------------------------------------------------------------..-------------.-----------------
(PID.TID 0000.0001) //     62 -----------------------------------------------------------------------------------------------------.......--................------------
(PID.TID 0000.0001) //     61 -----------------------------------------------------------------------------------------------------.........................------------
(PID.TID 0000.0001) //     60 -------------------------------------------------------------------------------------------------------..---..................------------
(PID.TID 0000.0001) //     59 -----------------------------------------------------------------------------------------------------------------.............------------
(PID.TID 0000.0001) //     58 -----------..------------------------....---------..-..------------.--------........------------------------------..........--------------
(PID.TID 0000.0001) //     57 ----------...------------------------........-----........---.....-.--------...........----------------------------........---------------
(PID.TID 0000.0001) //     56 --------....--------------------------.......-----.................-----------...........--------------------------.....----------------..
(PID.TID 0000.0001) //     55 -------....---------------------------.........--.--............--.-----------............-----.-------------------...-----------------...
(PID.TID 0000.0001) //     54 -------..-----------------------------.--...................------------------.--............-..---------------------------------------..-
(PID.TID 0000.0001) //     53 ------------------------------------...................------.-----------------------...........-----------....---------------------------
(PID.TID 0000.0001) //     52 -----------------------------------...................-------.-------------------------..........----------....---------------------------
(PID.TID 0000.0001) //     51 ---------....----------------.....................-....---------------------------------..........---------....--------------------------.
(PID.TID 0000.0001) //     50 ------.........--------------....................----..----------------------------------.........------------------------------------....
(PID.TID 0000.0001) //     49 -----..........----...-------....................-..-.-----------------------------------..........----------------------------------.....
(PID.TID 0000.0001) //     48 --....-----...--......-------...................-...-------------------------------------..........-------------------------------....----
(PID.TID 0000.0001) //     47 --....------.--.......---.--....................-..--------------------------------------..........-----.-------------------------....----
(PID.TID 0000.0001) //     46 ---.-...-------...............................--------------------------------------------........-----..--------------------------.-...--
(PID.TID 0000.0001) //     45 --......----------..-........................---------------------------------------------........-----.--------------------------......--
(PID.TID 0000.0001) //     44 --.....-..-------....-........-..............------------------------------------------------.....--------------------------------.....-..
(PID.TID 0000.0001) //     43 -..........------.....-.......---............-.----------------------------------------------....--------------------------------.........
(PID.TID 0000.0001) //     42 -.----.........---....---....--..-...........-.-----------------------------------------------....-------------------------------.----....
(PID.TID 0000.0001) //     41 ------.........--.-...---------..-..--.....----------------------------------------------------...------------------------------------....
(PID.TID 0000.0001) //     40 ------.........--.-.....-------..-----....------------------------------------------------------...-----------------------------------....
(PID.TID 0000.0001) //     39 ------....--.......-....-------..-------..------------------------------------------------------...-..--------------------------------....
(PID.TID 0000.0001) //     38 -------..---...........---------.-------------------------------------------------------------------...--------------------------------..-
(PID.TID 0000.0001) //     37 -..----...--...........---------.---------------------------------------------------------------------.-----.--------------------..----...
(PID.TID 0000.0001) //     36 -..----.........-......-----------------------------------------------------------------------------------....-------------------..----...
(PID.TID 0000.0001) //     35 --------..............-----------------.------.-----------------------------------------------------------..-...------------------------..
(PID.TID 0000.0001) //     34 ---------...........-------------------.-----..----------------------------------------------------------..--...-------------------------.
(PID.TID 0000.0001) //     33 ---------..--......--------------------------..---------------------------------------------------------...------------------------------.
(PID.TID 0000.0001) //     32 ---------..........----------------------------------...------------------------------------------------..-------------------------------.
(PID.TID 0000.0001) //     31 ----------.........----------------------------------....-----------------------------------------------..------------.-------------------
(PID.TID 0000.0001) //     30 ----------.........-------------------------------------.------------------------------------------------..---------...-------------------
(PID.TID 0000.0001) //     29 ----------.........--------------------------------------------------------------------------------------...--------...-------------------
(PID.TID 0000.0001) //     28 ---------..........---.----------------------------------------------------------------------------------.....---.-....------------------.
(PID.TID 0000.0001) //     27 ---------..........--..---------------------------------.-------------------------------------------------.....--......------------------.
(PID.TID 0000.0001) //     26 ---------........----.-----------------------------..---.---------------------------------------------------...---....-------------------.
(PID.TID 0000.0001) //     25 ----------.......----.------------------------...-...-------------------------------------------------------...---....--------------------
(PID.TID 0000.0001) //     24 ----------......-----.------------------------.......-------------------------------------------------------..----..----------------------
(PID.TID 0000.0001) //     23 ----------......-------------------------------.....------.-------------------------------------------------..----..----------------------
(PID.TID 0000.0001) //     22 -----------.....-------------------------------..---------.------------------------------------------------...----------------------------
(PID.TID 0000.0001) //     21 ------------...------------------------------------------..------------------------------------------------...----------------------------
(PID.TID 0000.0001) //     20 ---------------------------------------------------------.-------------------------------------------------..-----------------------------
(PID.TID 0000.0001) //     19 -----------------------------------------------------------------------------------------------------------..-----------------------------
(PID.TID 0000.0001) //     18 -----------------------------------------------------------------------------------------------------------..-----------------------------
(PID.TID 0000.0001) //     17 -----------------------------------------------------------------------------------------------------------..-----------------------------
(PID.TID 0000.0001) //     16 ----------------------------------------------------------------------------------------------------------...-----------------------------
(PID.TID 0000.0001) //     15 ----------------------------------------------------------------------------------------------------------..------------------------------
(PID.TID 0000.0001) //     14 ------------------------------------------------------------------------------------------------------------------------------------------
(PID.TID 0000.0001) //     13 ------------------------------------------------------------------------------------------------------------------------------------------
(PID.TID 0000.0001) //     12 ------------------------------------------------------------------------------------------------------------------------------------------
(PID.TID 0000.0001) //     11 ------------------------------------------------------------------------------------------------------------------------------------------
(PID.TID 0000.0001) //     10 -----------------------------------------.------------------------------------------------------------------------------------------------
(PID.TID 0000.0001) //      9 --------------------.........----...........................-------------------------------------------------.----------------------------
(PID.TID 0000.0001) //      8 --...............................................................-------------------------------------------...-------------------........
(PID.TID 0000.0001) //      7 .................................................................---------------------------------.............--------------.............
(PID.TID 0000.0001) //      6 ................................................................-----------------..............................-----------................
(PID.TID 0000.0001) //      5 ...............................................................------------------........................-----------------................
(PID.TID 0000.0001) //      4 ..................................................................----------------...........................---..........................
(PID.TID 0000.0001) //      3 ..........................................................................................................................................
(PID.TID 0000.0001) //      2 ..........................................................................................................................................
(PID.TID 0000.0001) //      1 ..........................................................................................................................................
(PID.TID 0000.0001) //      0 ..........................................................................................................................................
(PID.TID 0000.0001) //     -1 ..........................................................................................................................................
(PID.TID 0000.0001) //     -2 ..........................................................................................................................................
(PID.TID 0000.0001) //     -3 ..........................................................................................................................................
(PID.TID 0000.0001) //     -4 ..........................................................................................................................................
(PID.TID 0000.0001) // =======================================================
(PID.TID 0000.0001) // END OF FIELD                                          =
(PID.TID 0000.0001) // =======================================================
(PID.TID 0000.0001) 
(PID.TID 0000.0001) %MON fCori_max                    =   1.4540029928789E-04
(PID.TID 0000.0001) %MON fCori_min                    =  -1.4540029928789E-04
(PID.TID 0000.0001) %MON fCori_mean                   =  -2.2565487110447E-21
(PID.TID 0000.0001) %MON fCori_sd                     =   1.0284451245737E-04
(PID.TID 0000.0001) %MON fCoriG_max                   =   1.4526891053949E-04
(PID.TID 0000.0001) %MON fCoriG_min                   =  -1.4544410433286E-04
(PID.TID 0000.0001) %MON fCoriG_mean                  =  -2.3086365767121E-06
(PID.TID 0000.0001) %MON fCoriG_sd                    =   1.0363181330709E-04
(PID.TID 0000.0001)  PACKAGE_INIT: opening data.pkg
(PID.TID 0000.0001)  OPEN_COPY_DATA_FILE: opening file data.pkg
(PID.TID 0000.0001) // =======================================================
(PID.TID 0000.0001) // Parameter file "data.pkg"
(PID.TID 0000.0001) // =======================================================
(PID.TID 0000.0001) ># Packages
(PID.TID 0000.0001) > &PACKAGES
(PID.TID 0000.0001) > useAIM=.TRUE.,
(PID.TID 0000.0001) > useSHAP_FILT=.TRUE.,
(PID.TID 0000.0001) > &
(PID.TID 0000.0001) 
(PID.TID 0000.0001)  PACKAGE_INIT: finished reading data.pkg
(PID.TID 0000.0001)  SHAP_FILT_READPARMS: opening data.shap
(PID.TID 0000.0001)  OPEN_COPY_DATA_FILE: opening file data.shap
(PID.TID 0000.0001) // =======================================================
(PID.TID 0000.0001) // Parameter file "data.shap"
(PID.TID 0000.0001) // =======================================================
(PID.TID 0000.0001) ># Packages
(PID.TID 0000.0001) > &SHAP_PARM01
(PID.TID 0000.0001) > nShapT=4,
(PID.TID 0000.0001) > nShapUV=4,
(PID.TID 0000.0001) > Shap_funct=4,
(PID.TID 0000.0001) > &
(PID.TID 0000.0001) 
(PID.TID 0000.0001)  SHAP_FILT_READPARMS: finished reading data.shap
 Shap_funct, nShap_Tr,UV _Phys=           4           4           4           0
            0
 Shap_Trtau,Shap_uvtau=   300.0000000000000        300.0000000000000     
(PID.TID 0000.0001) // CG2D normalisation factor =          0.2454122852291226400000000E-06
(PID.TID 0000.0001) 
 ini_cg2d: sumArea,cg2dTolerance =  5.09904363781794E+14  4.17122650546640E-12
(PID.TID 0000.0001) // =======================================================
(PID.TID 0000.0001) // Model configuration
(PID.TID 0000.0001) // =======================================================
(PID.TID 0000.0001) //
(PID.TID 0000.0001) // "Physical" paramters ( PARM01 in namelist )
(PID.TID 0000.0001) //
(PID.TID 0000.0001) tRef =   /* Reference temperature profile ( oC or oK ) */
(PID.TID 0000.0001)                 2.810890000000000E+02,      /* K =  1 */
(PID.TID 0000.0001)                 2.893210000000000E+02,      /* K =  2 */
(PID.TID 0000.0001)                 3.071910000000000E+02,      /* K =  3 */
(PID.TID 0000.0001)                 3.313770000000000E+02,      /* K =  4 */
(PID.TID 0000.0001)                 4.324130000000000E+02       /* K =  5 */
(PID.TID 0000.0001)     ;
(PID.TID 0000.0001) sRef =   /* Reference salinity profile ( ppt ) */
(PID.TID 0000.0001)     5 @  0.000000000000000E+00              /* K =  1:  5 */
(PID.TID 0000.0001)     ;
(PID.TID 0000.0001) viscAh =   /* Lateral eddy viscosity ( m^2/s ) */
(PID.TID 0000.0001)                 0.000000000000000E+00
(PID.TID 0000.0001)     ;
(PID.TID 0000.0001) viscAh =   /* Lateral biharmonic viscosity ( m^4/s ) */
(PID.TID 0000.0001)                 0.000000000000000E+00
(PID.TID 0000.0001)     ;
(PID.TID 0000.0001) no_slip_sides =  /* Viscous BCs: No-slip sides */
(PID.TID 0000.0001)                   F
(PID.TID 0000.0001)     ;
(PID.TID 0000.0001) viscAr =   /* Vertical eddy viscosity ( units of r^2/s ) */
(PID.TID 0000.0001)                 0.000000000000000E+00
(PID.TID 0000.0001)     ;
(PID.TID 0000.0001) diffKhT =   /* Laplacian diffusion of heat laterally ( m^2/s ) */
(PID.TID 0000.0001)                 0.000000000000000E+00
(PID.TID 0000.0001)     ;
(PID.TID 0000.0001) diffK4T =   /* Bihaarmonic diffusion of heat laterally ( m^4/s ) */
(PID.TID 0000.0001)                 0.000000000000000E+00
(PID.TID 0000.0001)     ;
(PID.TID 0000.0001) diffKzT =   /* Laplacian diffusion of heat vertically ( m^2/s ) */
(PID.TID 0000.0001)                 1.234567000000000E+05
(PID.TID 0000.0001)     ;
(PID.TID 0000.0001) diffKrT =   /* Laplacian diffusion of heat vertically ( m^2/s ) */
(PID.TID 0000.0001)                 0.000000000000000E+00
(PID.TID 0000.0001)     ;
(PID.TID 0000.0001) diffKhS =   /* Laplacian diffusion of salt laterally ( m^2/s ) */
(PID.TID 0000.0001)                 0.000000000000000E+00
(PID.TID 0000.0001)     ;
(PID.TID 0000.0001) diffK4S =   /* Bihaarmonic diffusion of salt laterally ( m^4/s ) */
(PID.TID 0000.0001)                 0.000000000000000E+00
(PID.TID 0000.0001)     ;
(PID.TID 0000.0001) diffKzS =   /* Laplacian diffusion of salt vertically ( m^2/s ) */
(PID.TID 0000.0001)                 1.234567000000000E+05
(PID.TID 0000.0001)     ;
(PID.TID 0000.0001) diffKrS =   /* Laplacian diffusion of salt vertically ( m^2/s ) */
(PID.TID 0000.0001)                 0.000000000000000E+00
(PID.TID 0000.0001)     ;
(PID.TID 0000.0001) tAlpha =   /* Linear EOS thermal expansion coefficient ( 1/degree ) */
(PID.TID 0000.0001)                 2.000000000000000E-04
(PID.TID 0000.0001)     ;
(PID.TID 0000.0001) sBeta =   /* Linear EOS haline contraction coefficient ( 1/ppt ) */
(PID.TID 0000.0001)                 7.400000000000001E-04
(PID.TID 0000.0001)     ;
(PID.TID 0000.0001) rhonil =   /* Reference density ( kg/m^3 ) */
(PID.TID 0000.0001)                 1.000000000000000E+00
(PID.TID 0000.0001)     ;
(PID.TID 0000.0001) rhoConst =   /* Reference density ( kg/m^3 ) */
(PID.TID 0000.0001)                 1.000000000000000E+00
(PID.TID 0000.0001)     ;
(PID.TID 0000.0001) gravity =   /* Gravitational acceleration ( m/s^2 ) */
(PID.TID 0000.0001)                 9.810000000000001E+00
(PID.TID 0000.0001)     ;
(PID.TID 0000.0001) gBaro =   /* Barotropic gravity ( m/s^2 ) */
(PID.TID 0000.0001)                 9.810000000000001E+00
(PID.TID 0000.0001)     ;
(PID.TID 0000.0001) f0 =   /* Reference coriolis parameter ( 1/s ) */
(PID.TID 0000.0001)                 1.000000000000000E-04
(PID.TID 0000.0001)     ;
(PID.TID 0000.0001) beta =   /* Beta ( 1/(m.s) ) */
(PID.TID 0000.0001)                 9.999999999999998E-12
(PID.TID 0000.0001)     ;
(PID.TID 0000.0001) freeSurfFac =   /* Implicit free surface factor */
(PID.TID 0000.0001)                 1.000000000000000E+00
(PID.TID 0000.0001)     ;
(PID.TID 0000.0001) implicitFreeSurface =   /* Implicit free surface on/off flag */
(PID.TID 0000.0001)                   T
(PID.TID 0000.0001)     ;
(PID.TID 0000.0001) rigidLid =   /* Rigid lid on/off flag */
(PID.TID 0000.0001)                   F
(PID.TID 0000.0001)     ;
(PID.TID 0000.0001) implicSurfPress =   /* Surface Pressure implicit factor (0-1)*/
(PID.TID 0000.0001)                 1.000000000000000E+00
(PID.TID 0000.0001)     ;
(PID.TID 0000.0001) implicDiv2Dflow =   /* Barot. Flow Div. implicit factor (0-1)*/
(PID.TID 0000.0001)                 1.000000000000000E+00
(PID.TID 0000.0001)     ;
(PID.TID 0000.0001) staggerTimeStep =   /* Stagger time stepping on/off flag */
(PID.TID 0000.0001)                   T
(PID.TID 0000.0001)     ;
(PID.TID 0000.0001) momStepping =  /* Momentum equation on/off flag */
(PID.TID 0000.0001)                   T
(PID.TID 0000.0001)     ;
(PID.TID 0000.0001) momAdvection =  /* Momentum advection on/off flag */
(PID.TID 0000.0001)                   T
(PID.TID 0000.0001)     ;
(PID.TID 0000.0001) momViscosity =  /* Momentum viscosity on/off flag */
(PID.TID 0000.0001)                   T
(PID.TID 0000.0001)     ;
(PID.TID 0000.0001) useCoriolis =  /* Coriolis on/off flag */
(PID.TID 0000.0001)                   T
(PID.TID 0000.0001)     ;
(PID.TID 0000.0001) momForcing =  /* Momentum forcing on/off flag */
(PID.TID 0000.0001)                   T
(PID.TID 0000.0001)     ;
(PID.TID 0000.0001) momPressureForcing =  /* Momentum pressure term on/off flag */
(PID.TID 0000.0001)                   T
(PID.TID 0000.0001)     ;
(PID.TID 0000.0001) tempStepping =  /* Temperature equation on/off flag */
(PID.TID 0000.0001)                   T
(PID.TID 0000.0001)     ;
(PID.TID 0000.0001) nonHydrostatic =  /* Non-Hydrostatic on/off flag */
(PID.TID 0000.0001)                   F
(PID.TID 0000.0001)     ;
(PID.TID 0000.0001) //
(PID.TID 0000.0001) // Elliptic solver(s) paramters ( PARM02 in namelist )
(PID.TID 0000.0001) //
(PID.TID 0000.0001) cg2dMaxIters =   /* Upper limit on 2d con. grad iterations  */
(PID.TID 0000.0001)                     200
(PID.TID 0000.0001)     ;
(PID.TID 0000.0001) cg2dChkResFreq =   /* 2d con. grad convergence test frequency */
(PID.TID 0000.0001)                       1
(PID.TID 0000.0001)     ;
(PID.TID 0000.0001) cg2dTargetResidual =   /* 2d con. grad target residual  */
(PID.TID 0000.0001)                 1.000000000000000E-07
(PID.TID 0000.0001)     ;
(PID.TID 0000.0001) //
(PID.TID 0000.0001) // Time stepping paramters ( PARM03 in namelist )
(PID.TID 0000.0001) //
(PID.TID 0000.0001) nIter0 =   /* Base timestep number  */
(PID.TID 0000.0001)                   25920
(PID.TID 0000.0001)     ;
(PID.TID 0000.0001) nTimeSteps =   /* Number of timesteps */
(PID.TID 0000.0001)                      10
(PID.TID 0000.0001)     ;
(PID.TID 0000.0001) deltatTmom =   /* Momentum equation timestep ( s ) */
(PID.TID 0000.0001)                 3.000000000000000E+02
(PID.TID 0000.0001)     ;
(PID.TID 0000.0001) deltatTtracer =   /* Tracer equation timestep ( s ) */
(PID.TID 0000.0001)                 3.000000000000000E+02
(PID.TID 0000.0001)     ;
(PID.TID 0000.0001) deltatTClock  =   /* Model clock timestep ( s ) */
(PID.TID 0000.0001)                 3.000000000000000E+02
(PID.TID 0000.0001)     ;
(PID.TID 0000.0001) cAdjFreq =   /* Convective adjustment interval ( s ) */
(PID.TID 0000.0001)                 0.000000000000000E+00
(PID.TID 0000.0001)     ;
(PID.TID 0000.0001) abeps =   /* Adams-Bashforth stabilizing weight */
(PID.TID 0000.0001)                 1.000000000000000E-01
(PID.TID 0000.0001)     ;
(PID.TID 0000.0001) tauCD =   /* CD coupling time-scale ( s ) */
(PID.TID 0000.0001)                 3.000000000000000E+02
(PID.TID 0000.0001)     ;
(PID.TID 0000.0001) rCD =   /* Normalised CD coupling parameter */
(PID.TID 0000.0001)                 0.000000000000000E+00
(PID.TID 0000.0001)     ;
(PID.TID 0000.0001) startTime =   /* Run start time ( s ). */
(PID.TID 0000.0001)                 7.776000000000000E+06
(PID.TID 0000.0001)     ;
(PID.TID 0000.0001) endTime =   /* Integration ending time ( s ). */
(PID.TID 0000.0001)                 7.779000000000000E+06
(PID.TID 0000.0001)     ;
(PID.TID 0000.0001) pChkPtFreq =   /* Permanent restart/checkpoint file interval ( s ). */
(PID.TID 0000.0001)                 2.592000000000000E+06
(PID.TID 0000.0001)     ;
(PID.TID 0000.0001) chkPtFreq =   /* Rolling restart/checkpoint file interval ( s ). */
(PID.TID 0000.0001)                 0.000000000000000E+00
(PID.TID 0000.0001)     ;
(PID.TID 0000.0001) dumpFreq =   /* Model state write out interval ( s ). */
(PID.TID 0000.0001)                 2.592000000000000E+06
(PID.TID 0000.0001)     ;
(PID.TID 0000.0001) //
(PID.TID 0000.0001) // Gridding paramters ( PARM04 in namelist )
(PID.TID 0000.0001) //
(PID.TID 0000.0001) usingCartesianGrid =   /* Cartesian coordinates flag ( True / False ) */
(PID.TID 0000.0001)                   F
(PID.TID 0000.0001)     ;
(PID.TID 0000.0001) usingSphericalPolarGrid =   /* Spherical coordinates flag ( True / False ) */
(PID.TID 0000.0001)                   T
(PID.TID 0000.0001)     ;
(PID.TID 0000.0001) groundAtK1 =   /* Lower Boundary (ground) at the surface(k=1) ( T / F ) */
(PID.TID 0000.0001)                   T
(PID.TID 0000.0001)     ;
(PID.TID 0000.0001) Ro_SeaLevel =   /* r(1) ( units of r ) */
(PID.TID 0000.0001)                 1.000000000000000E+05
(PID.TID 0000.0001)     ;
(PID.TID 0000.0001) rkFac =   /* minus Vertical index orientation  */
(PID.TID 0000.0001)                 1.000000000000000E+00
(PID.TID 0000.0001)     ;
(PID.TID 0000.0001) horiVertRatio =   /* Ratio on units : Horiz - Vertical */
(PID.TID 0000.0001)                 9.810000000000001E+00
(PID.TID 0000.0001)     ;
(PID.TID 0000.0001) delZ =   /* W spacing ( m ) */
(PID.TID 0000.0001)     5 @  1.234567000000000E+05              /* K =  1:  5 */
(PID.TID 0000.0001)     ;
(PID.TID 0000.0001) delP =   /* W spacing ( Pa ) */
(PID.TID 0000.0001)     5 @  1.234567000000000E+05              /* K =  1:  5 */
(PID.TID 0000.0001)     ;
(PID.TID 0000.0001) delR =   /* W spacing ( units of r ) */
(PID.TID 0000.0001)                 1.000000000000000E+04,      /* K =  1 */
(PID.TID 0000.0001)                 2.500000000000000E+04,      /* K =  2 */
(PID.TID 0000.0001)                 3.000000000000000E+04,      /* K =  3 */
(PID.TID 0000.0001)                 2.000000000000000E+04,      /* K =  4 */
(PID.TID 0000.0001)                 1.500000000000000E+04       /* K =  5 */
(PID.TID 0000.0001)     ;
(PID.TID 0000.0001) delX =   /* U spacing ( m - cartesian, degrees - spherical ) */
(PID.TID 0000.0001)   128 @  2.812500000000000E+00              /* I =  1:128 */
(PID.TID 0000.0001)     ;
(PID.TID 0000.0001) delY =   /* V spacing ( m - cartesian, degrees - spherical ) */
(PID.TID 0000.0001)    64 @  2.812500000000000E+00              /* J =  1: 64 */
(PID.TID 0000.0001)     ;
(PID.TID 0000.0001) phiMin =    /* South edge (ignored - cartesian, degrees - spherical ) */
(PID.TID 0000.0001)                -9.000000000000000E+01
(PID.TID 0000.0001)     ;
(PID.TID 0000.0001) thetaMin =    /* West edge ( ignored - cartesian, degrees - spherical ) */
(PID.TID 0000.0001)                 0.000000000000000E+00
(PID.TID 0000.0001)     ;
(PID.TID 0000.0001) rSphere =    /* Radius ( ignored - cartesian, m - spherical ) */
(PID.TID 0000.0001)                 6.370000000000000E+06
(PID.TID 0000.0001)     ;
(PID.TID 0000.0001) xcoord =   /* P-point X coord ( m - cartesian, degrees - spherical ) */
(PID.TID 0000.0001)                 1.406250000000000E+00,      /* I =  1 */
(PID.TID 0000.0001)                 4.218750000000000E+00,      /* I =  2 */
(PID.TID 0000.0001)                 7.031250000000000E+00,      /* I =  3 */
(PID.TID 0000.0001)                 9.843750000000000E+00,      /* I =  4 */
(PID.TID 0000.0001)                 1.265625000000000E+01,      /* I =  5 */
(PID.TID 0000.0001)                 1.546875000000000E+01,      /* I =  6 */
(PID.TID 0000.0001)                 1.828125000000000E+01,      /* I =  7 */
(PID.TID 0000.0001)                 2.109375000000000E+01,      /* I =  8 */
(PID.TID 0000.0001)                 2.390625000000000E+01,      /* I =  9 */
(PID.TID 0000.0001)                 2.671875000000000E+01,      /* I = 10 */
(PID.TID 0000.0001)                 2.953125000000000E+01,      /* I = 11 */
(PID.TID 0000.0001)                 3.234375000000000E+01,      /* I = 12 */
(PID.TID 0000.0001)                 3.515625000000000E+01,      /* I = 13 */
(PID.TID 0000.0001)                 3.796875000000000E+01,      /* I = 14 */
(PID.TID 0000.0001)                 4.078125000000000E+01,      /* I = 15 */
(PID.TID 0000.0001)                 4.359375000000000E+01,      /* I = 16 */
(PID.TID 0000.0001)                 4.640625000000000E+01,      /* I = 17 */
(PID.TID 0000.0001)                 4.921875000000000E+01,      /* I = 18 */
(PID.TID 0000.0001)                 5.203125000000000E+01,      /* I = 19 */
(PID.TID 0000.0001)                 5.484375000000000E+01,      /* I = 20 */
(PID.TID 0000.0001)                 5.765625000000000E+01,      /* I = 21 */
(PID.TID 0000.0001)                 6.046875000000000E+01,      /* I = 22 */
(PID.TID 0000.0001)                 6.328125000000000E+01,      /* I = 23 */
(PID.TID 0000.0001)                 6.609375000000000E+01,      /* I = 24 */
(PID.TID 0000.0001)                 6.890625000000000E+01,      /* I = 25 */
(PID.TID 0000.0001)                 7.171875000000000E+01,      /* I = 26 */
(PID.TID 0000.0001)                 7.453125000000000E+01,      /* I = 27 */
(PID.TID 0000.0001)                 7.734375000000000E+01,      /* I = 28 */
(PID.TID 0000.0001)                 8.015625000000000E+01,      /* I = 29 */
(PID.TID 0000.0001)                 8.296875000000000E+01,      /* I = 30 */
(PID.TID 0000.0001)                 8.578125000000000E+01,      /* I = 31 */
(PID.TID 0000.0001)                 8.859375000000000E+01,      /* I = 32 */
(PID.TID 0000.0001)                 9.140625000000000E+01,      /* I = 33 */
(PID.TID 0000.0001)                 9.421875000000000E+01,      /* I = 34 */
(PID.TID 0000.0001)                 9.703125000000000E+01,      /* I = 35 */
(PID.TID 0000.0001)                 9.984375000000000E+01,      /* I = 36 */
(PID.TID 0000.0001)                 1.026562500000000E+02,      /* I = 37 */
(PID.TID 0000.0001)                 1.054687500000000E+02,      /* I = 38 */
(PID.TID 0000.0001)                 1.082812500000000E+02,      /* I = 39 */
(PID.TID 0000.0001)                 1.110937500000000E+02,      /* I = 40 */
(PID.TID 0000.0001)                 1.139062500000000E+02,      /* I = 41 */
(PID.TID 0000.0001)                 1.167187500000000E+02,      /* I = 42 */
(PID.TID 0000.0001)                 1.195312500000000E+02,      /* I = 43 */
(PID.TID 0000.0001)                 1.223437500000000E+02,      /* I = 44 */
(PID.TID 0000.0001)                 1.251562500000000E+02,      /* I = 45 */
(PID.TID 0000.0001)                 1.279687500000000E+02,      /* I = 46 */
(PID.TID 0000.0001)                 1.307812500000000E+02,      /* I = 47 */
(PID.TID 0000.0001)                 1.335937500000000E+02,      /* I = 48 */
(PID.TID 0000.0001)                 1.364062500000000E+02,      /* I = 49 */
(PID.TID 0000.0001)                 1.392187500000000E+02,      /* I = 50 */
(PID.TID 0000.0001)                 1.420312500000000E+02,      /* I = 51 */
(PID.TID 0000.0001)                 1.448437500000000E+02,      /* I = 52 */
(PID.TID 0000.0001)                 1.476562500000000E+02,      /* I = 53 */
(PID.TID 0000.0001)                 1.504687500000000E+02,      /* I = 54 */
(PID.TID 0000.0001)                 1.532812500000000E+02,      /* I = 55 */
(PID.TID 0000.0001)                 1.560937500000000E+02,      /* I = 56 */
(PID.TID 0000.0001)                 1.589062500000000E+02,      /* I = 57 */
(PID.TID 0000.0001)                 1.617187500000000E+02,      /* I = 58 */
(PID.TID 0000.0001)                 1.645312500000000E+02,      /* I = 59 */
(PID.TID 0000.0001)                 1.673437500000000E+02,      /* I = 60 */
(PID.TID 0000.0001)                 1.701562500000000E+02,      /* I = 61 */
(PID.TID 0000.0001)                 1.729687500000000E+02,      /* I = 62 */
(PID.TID 0000.0001)                 1.757812500000000E+02,      /* I = 63 */
(PID.TID 0000.0001)                 1.785937500000000E+02,      /* I = 64 */
(PID.TID 0000.0001)                 1.814062500000000E+02,      /* I = 65 */
(PID.TID 0000.0001)                 1.842187500000000E+02,      /* I = 66 */
(PID.TID 0000.0001)                 1.870312500000000E+02,      /* I = 67 */
(PID.TID 0000.0001)                 1.898437500000000E+02,      /* I = 68 */
(PID.TID 0000.0001)                 1.926562500000000E+02,      /* I = 69 */
(PID.TID 0000.0001)                 1.954687500000000E+02,      /* I = 70 */
(PID.TID 0000.0001)                 1.982812500000000E+02,      /* I = 71 */
(PID.TID 0000.0001)                 2.010937500000000E+02,      /* I = 72 */
(PID.TID 0000.0001)                 2.039062500000000E+02,      /* I = 73 */
(PID.TID 0000.0001)                 2.067187500000000E+02,      /* I = 74 */
(PID.TID 0000.0001)                 2.095312500000000E+02,      /* I = 75 */
(PID.TID 0000.0001)                 2.123437500000000E+02,      /* I = 76 */
(PID.TID 0000.0001)                 2.151562500000000E+02,      /* I = 77 */
(PID.TID 0000.0001)                 2.179687500000000E+02,      /* I = 78 */
(PID.TID 0000.0001)                 2.207812500000000E+02,      /* I = 79 */
(PID.TID 0000.0001)                 2.235937500000000E+02,      /* I = 80 */
(PID.TID 0000.0001)                 2.264062500000000E+02,      /* I = 81 */
(PID.TID 0000.0001)                 2.292187500000000E+02,      /* I = 82 */
(PID.TID 0000.0001)                 2.320312500000000E+02,      /* I = 83 */
(PID.TID 0000.0001)                 2.348437500000000E+02,      /* I = 84 */
(PID.TID 0000.0001)                 2.376562500000000E+02,      /* I = 85 */
(PID.TID 0000.0001)                 2.404687500000000E+02,      /* I = 86 */
(PID.TID 0000.0001)                 2.432812500000000E+02,      /* I = 87 */
(PID.TID 0000.0001)                 2.460937500000000E+02,      /* I = 88 */
(PID.TID 0000.0001)                 2.489062500000000E+02,      /* I = 89 */
(PID.TID 0000.0001)                 2.517187500000000E+02,      /* I = 90 */
(PID.TID 0000.0001)                 2.545312500000000E+02,      /* I = 91 */
(PID.TID 0000.0001)                 2.573437500000000E+02,      /* I = 92 */
(PID.TID 0000.0001)                 2.601562500000000E+02,      /* I = 93 */
(PID.TID 0000.0001)                 2.629687500000000E+02,      /* I = 94 */
(PID.TID 0000.0001)                 2.657812500000000E+02,      /* I = 95 */
(PID.TID 0000.0001)                 2.685937500000000E+02,      /* I = 96 */
(PID.TID 0000.0001)                 2.714062500000000E+02,      /* I = 97 */
(PID.TID 0000.0001)                 2.742187500000000E+02,      /* I = 98 */
(PID.TID 0000.0001)                 2.770312500000000E+02,      /* I = 99 */
(PID.TID 0000.0001)                 2.798437500000000E+02,      /* I =100 */
(PID.TID 0000.0001)                 2.826562500000000E+02,      /* I =101 */
(PID.TID 0000.0001)                 2.854687500000000E+02,      /* I =102 */
(PID.TID 0000.0001)                 2.882812500000000E+02,      /* I =103 */
(PID.TID 0000.0001)                 2.910937500000000E+02,      /* I =104 */
(PID.TID 0000.0001)                 2.939062500000000E+02,      /* I =105 */
(PID.TID 0000.0001)                 2.967187500000000E+02,      /* I =106 */
(PID.TID 0000.0001)                 2.995312500000000E+02,      /* I =107 */
(PID.TID 0000.0001)                 3.023437500000000E+02,      /* I =108 */
(PID.TID 0000.0001)                 3.051562500000000E+02,      /* I =109 */
(PID.TID 0000.0001)                 3.079687500000000E+02,      /* I =110 */
(PID.TID 0000.0001)                 3.107812500000000E+02,      /* I =111 */
(PID.TID 0000.0001)                 3.135937500000000E+02,      /* I =112 */
(PID.TID 0000.0001)                 3.164062500000000E+02,      /* I =113 */
(PID.TID 0000.0001)                 3.192187500000000E+02,      /* I =114 */
(PID.TID 0000.0001)                 3.220312500000000E+02,      /* I =115 */
(PID.TID 0000.0001)                 3.248437500000000E+02,      /* I =116 */
(PID.TID 0000.0001)                 3.276562500000000E+02,      /* I =117 */
(PID.TID 0000.0001)                 3.304687500000000E+02,      /* I =118 */
(PID.TID 0000.0001)                 3.332812500000000E+02,      /* I =119 */
(PID.TID 0000.0001)                 3.360937500000000E+02,      /* I =120 */
(PID.TID 0000.0001)                 3.389062500000000E+02,      /* I =121 */
(PID.TID 0000.0001)                 3.417187500000000E+02,      /* I =122 */
(PID.TID 0000.0001)                 3.445312500000000E+02,      /* I =123 */
(PID.TID 0000.0001)                 3.473437500000000E+02,      /* I =124 */
(PID.TID 0000.0001)                 3.501562500000000E+02,      /* I =125 */
(PID.TID 0000.0001)                 3.529687500000000E+02,      /* I =126 */
(PID.TID 0000.0001)                 3.557812500000000E+02,      /* I =127 */
(PID.TID 0000.0001)                 3.585937500000000E+02       /* I =128 */
(PID.TID 0000.0001)     ;
(PID.TID 0000.0001) ycoord =   /* P-point Y coord ( m - cartesian, degrees - spherical ) */
(PID.TID 0000.0001)                -8.859375000000000E+01,      /* J =  1 */
(PID.TID 0000.0001)                -8.578125000000000E+01,      /* J =  2 */
(PID.TID 0000.0001)                -8.296875000000000E+01,      /* J =  3 */
(PID.TID 0000.0001)                -8.015625000000000E+01,      /* J =  4 */
(PID.TID 0000.0001)                -7.734375000000000E+01,      /* J =  5 */
(PID.TID 0000.0001)                -7.453125000000000E+01,      /* J =  6 */
(PID.TID 0000.0001)                -7.171875000000000E+01,      /* J =  7 */
(PID.TID 0000.0001)                -6.890625000000000E+01,      /* J =  8 */
(PID.TID 0000.0001)                -6.609375000000000E+01,      /* J =  9 */
(PID.TID 0000.0001)                -6.328125000000000E+01,      /* J = 10 */
(PID.TID 0000.0001)                -6.046875000000000E+01,      /* J = 11 */
(PID.TID 0000.0001)                -5.765625000000000E+01,      /* J = 12 */
(PID.TID 0000.0001)                -5.484375000000000E+01,      /* J = 13 */
(PID.TID 0000.0001)                -5.203125000000000E+01,      /* J = 14 */
(PID.TID 0000.0001)                -4.921875000000000E+01,      /* J = 15 */
(PID.TID 0000.0001)                -4.640625000000000E+01,      /* J = 16 */
(PID.TID 0000.0001)                -4.359375000000000E+01,      /* J = 17 */
(PID.TID 0000.0001)                -4.078125000000000E+01,      /* J = 18 */
(PID.TID 0000.0001)                -3.796875000000000E+01,      /* J = 19 */
(PID.TID 0000.0001)                -3.515625000000000E+01,      /* J = 20 */
(PID.TID 0000.0001)                -3.234375000000000E+01,      /* J = 21 */
(PID.TID 0000.0001)                -2.953125000000000E+01,      /* J = 22 */
(PID.TID 0000.0001)                -2.671875000000000E+01,      /* J = 23 */
(PID.TID 0000.0001)                -2.390625000000000E+01,      /* J = 24 */
(PID.TID 0000.0001)                -2.109375000000000E+01,      /* J = 25 */
(PID.TID 0000.0001)                -1.828125000000000E+01,      /* J = 26 */
(PID.TID 0000.0001)                -1.546875000000000E+01,      /* J = 27 */
(PID.TID 0000.0001)                -1.265625000000000E+01,      /* J = 28 */
(PID.TID 0000.0001)                -9.843750000000000E+00,      /* J = 29 */
(PID.TID 0000.0001)                -7.031250000000000E+00,      /* J = 30 */
(PID.TID 0000.0001)                -4.218750000000000E+00,      /* J = 31 */
(PID.TID 0000.0001)                -1.406250000000000E+00,      /* J = 32 */
(PID.TID 0000.0001)                 1.406250000000000E+00,      /* J = 33 */
(PID.TID 0000.0001)                 4.218750000000000E+00,      /* J = 34 */
(PID.TID 0000.0001)                 7.031250000000000E+00,      /* J = 35 */
(PID.TID 0000.0001)                 9.843750000000000E+00,      /* J = 36 */
(PID.TID 0000.0001)                 1.265625000000000E+01,      /* J = 37 */
(PID.TID 0000.0001)                 1.546875000000000E+01,      /* J = 38 */
(PID.TID 0000.0001)                 1.828125000000000E+01,      /* J = 39 */
(PID.TID 0000.0001)                 2.109375000000000E+01,      /* J = 40 */
(PID.TID 0000.0001)                 2.390625000000000E+01,      /* J = 41 */
(PID.TID 0000.0001)                 2.671875000000000E+01,      /* J = 42 */
(PID.TID 0000.0001)                 2.953125000000000E+01,      /* J = 43 */
(PID.TID 0000.0001)                 3.234375000000000E+01,      /* J = 44 */
(PID.TID 0000.0001)                 3.515625000000000E+01,      /* J = 45 */
(PID.TID 0000.0001)                 3.796875000000000E+01,      /* J = 46 */
(PID.TID 0000.0001)                 4.078125000000000E+01,      /* J = 47 */
(PID.TID 0000.0001)                 4.359375000000000E+01,      /* J = 48 */
(PID.TID 0000.0001)                 4.640625000000000E+01,      /* J = 49 */
(PID.TID 0000.0001)                 4.921875000000000E+01,      /* J = 50 */
(PID.TID 0000.0001)                 5.203125000000000E+01,      /* J = 51 */
(PID.TID 0000.0001)                 5.484375000000000E+01,      /* J = 52 */
(PID.TID 0000.0001)                 5.765625000000000E+01,      /* J = 53 */
(PID.TID 0000.0001)                 6.046875000000000E+01,      /* J = 54 */
(PID.TID 0000.0001)                 6.328125000000000E+01,      /* J = 55 */
(PID.TID 0000.0001)                 6.609375000000000E+01,      /* J = 56 */
(PID.TID 0000.0001)                 6.890625000000000E+01,      /* J = 57 */
(PID.TID 0000.0001)                 7.171875000000000E+01,      /* J = 58 */
(PID.TID 0000.0001)                 7.453125000000000E+01,      /* J = 59 */
(PID.TID 0000.0001)                 7.734375000000000E+01,      /* J = 60 */
(PID.TID 0000.0001)                 8.015625000000000E+01,      /* J = 61 */
(PID.TID 0000.0001)                 8.296875000000000E+01,      /* J = 62 */
(PID.TID 0000.0001)                 8.578125000000000E+01,      /* J = 63 */
(PID.TID 0000.0001)                 8.859375000000000E+01       /* J = 64 */
(PID.TID 0000.0001)     ;
(PID.TID 0000.0001) rcoord =   /* P-point R coordinate (  units of r ) */
(PID.TID 0000.0001)                 9.500000000000000E+04,      /* K =  1 */
(PID.TID 0000.0001)                 7.750000000000000E+04,      /* K =  2 */
(PID.TID 0000.0001)                 5.000000000000000E+04,      /* K =  3 */
(PID.TID 0000.0001)                 2.500000000000000E+04,      /* K =  4 */
(PID.TID 0000.0001)                 7.500000000000000E+03       /* K =  5 */
(PID.TID 0000.0001)     ;
(PID.TID 0000.0001) dxF =  /* dxF(:,1,:,1) ( m - cartesian, degrees - spherical ) */
(PID.TID 0000.0001)   128 @  7.673714381622298E+03              /* I =  1:128 */
(PID.TID 0000.0001)     ;
(PID.TID 0000.0001) dxF =  /* dxF(1,:,1,:) ( m - cartesian, degrees - spherical ) */
(PID.TID 0000.0001)                 7.673714381622298E+03,      /* J =  1 */
(PID.TID 0000.0001)                 2.300265649478360E+04,      /* J =  2 */
(PID.TID 0000.0001)                 3.827618319365422E+04,      /* J =  3 */
(PID.TID 0000.0001)                 5.345749921461356E+04,      /* J =  4 */
(PID.TID 0000.0001)                 6.851003143764105E+04,      /* J =  5 */
(PID.TID 0000.0001)                 8.339751699416523E+04,      /* J =  6 */
(PID.TID 0000.0001)                 9.808409062749070E+04,      /* J =  7 */
(PID.TID 0000.0001)                 1.125343710953429E+05,      /* J =  8 */
(PID.TID 0000.0001)                 1.267135464063795E+05,      /* J =  9 */
(PID.TID 0000.0001)                 1.405874576853274E+05,      /* J = 10 */
(PID.TID 0000.0001)                 1.541226814647045E+05,      /* J = 11 */
(PID.TID 0000.0001)                 1.672866102048805E+05,      /* J = 12 */
(PID.TID 0000.0001)                 1.800475308484964E+05,      /* J = 13 */
(PID.TID 0000.0001)                 1.923747012199971E+05,      /* J = 14 */
(PID.TID 0000.0001)                 2.042384240862251E+05,      /* J = 15 */
(PID.TID 0000.0001)                 2.156101186996563E+05,      /* J = 16 */
(PID.TID 0000.0001)                 2.264623896519241E+05,      /* J = 17 */
(PID.TID 0000.0001)                 2.367690928717577E+05,      /* J = 18 */
(PID.TID 0000.0001)                 2.465053986083400E+05,      /* J = 19 */
(PID.TID 0000.0001)                 2.556478512483520E+05,      /* J = 20 */
(PID.TID 0000.0001)                 2.641744258225996E+05,      /* J = 21 */
(PID.TID 0000.0001)                 2.720645810660936E+05,      /* J = 22 */
(PID.TID 0000.0001)                 2.792993089037566E+05,      /* J = 23 */
(PID.TID 0000.0001)                 2.858611802425402E+05,      /* J = 24 */
(PID.TID 0000.0001)                 2.917343869596373E+05,      /* J = 25 */
(PID.TID 0000.0001)                 2.969047799856344E+05,      /* J = 26 */
(PID.TID 0000.0001)                 3.013599033908587E+05,      /* J = 27 */
(PID.TID 0000.0001)                 3.050890243928044E+05,      /* J = 28 */
(PID.TID 0000.0001)                 3.080831592123453E+05,      /* J = 29 */
(PID.TID 0000.0001)                 3.103350947164461E+05,      /* J = 30 */
(PID.TID 0000.0001)                 3.118394057952310E+05,      /* J = 31 */
(PID.TID 0000.0001)     2 @  3.125924684315491E+05,             /* J = 32: 33 */
(PID.TID 0000.0001)                 3.118394057952310E+05,      /* J = 34 */
(PID.TID 0000.0001)                 3.103350947164461E+05,      /* J = 35 */
(PID.TID 0000.0001)                 3.080831592123453E+05,      /* J = 36 */
(PID.TID 0000.0001)                 3.050890243928044E+05,      /* J = 37 */
(PID.TID 0000.0001)                 3.013599033908587E+05,      /* J = 38 */
(PID.TID 0000.0001)                 2.969047799856344E+05,      /* J = 39 */
(PID.TID 0000.0001)                 2.917343869596373E+05,      /* J = 40 */
(PID.TID 0000.0001)                 2.858611802425402E+05,      /* J = 41 */
(PID.TID 0000.0001)                 2.792993089037566E+05,      /* J = 42 */
(PID.TID 0000.0001)                 2.720645810660936E+05,      /* J = 43 */
(PID.TID 0000.0001)                 2.641744258225996E+05,      /* J = 44 */
(PID.TID 0000.0001)                 2.556478512483520E+05,      /* J = 45 */
(PID.TID 0000.0001)                 2.465053986083400E+05,      /* J = 46 */
(PID.TID 0000.0001)                 2.367690928717577E+05,      /* J = 47 */
(PID.TID 0000.0001)                 2.264623896519241E+05,      /* J = 48 */
(PID.TID 0000.0001)                 2.156101186996563E+05,      /* J = 49 */
(PID.TID 0000.0001)                 2.042384240862251E+05,      /* J = 50 */
(PID.TID 0000.0001)                 1.923747012199971E+05,      /* J = 51 */
(PID.TID 0000.0001)                 1.800475308484964E+05,      /* J = 52 */
(PID.TID 0000.0001)                 1.672866102048805E+05,      /* J = 53 */
(PID.TID 0000.0001)                 1.541226814647045E+05,      /* J = 54 */
(PID.TID 0000.0001)                 1.405874576853274E+05,      /* J = 55 */
(PID.TID 0000.0001)                 1.267135464063795E+05,      /* J = 56 */
(PID.TID 0000.0001)                 1.125343710953429E+05,      /* J = 57 */
(PID.TID 0000.0001)                 9.808409062749070E+04,      /* J = 58 */
(PID.TID 0000.0001)                 8.339751699416523E+04,      /* J = 59 */
(PID.TID 0000.0001)                 6.851003143764105E+04,      /* J = 60 */
(PID.TID 0000.0001)                 5.345749921461356E+04,      /* J = 61 */
(PID.TID 0000.0001)                 3.827618319365422E+04,      /* J = 62 */
(PID.TID 0000.0001)                 2.300265649478360E+04,      /* J = 63 */
(PID.TID 0000.0001)                 7.673714381622298E+03       /* J = 64 */
(PID.TID 0000.0001)     ;
(PID.TID 0000.0001) dyF =  /* dyF(:,1,:,1) ( m - cartesian, degrees - spherical ) */
(PID.TID 0000.0001)   128 @  3.126866438026091E+05              /* I =  1:128 */
(PID.TID 0000.0001)     ;
(PID.TID 0000.0001) dyF =  /* dyF(1,:,1,:) ( m - cartesian, degrees - spherical ) */
(PID.TID 0000.0001)    64 @  3.126866438026091E+05              /* J =  1: 64 */
(PID.TID 0000.0001)     ;
(PID.TID 0000.0001) dxG =  /* dxG(:,1,:,1) ( m - cartesian, degrees - spherical ) */
(PID.TID 0000.0001)   128 @  0.000000000000000E+00              /* I =  1:128 */
(PID.TID 0000.0001)     ;
(PID.TID 0000.0001) dxG =  /* dxG(1,:,1,:) ( m - cartesian, degrees - spherical ) */
(PID.TID 0000.0001)                 0.000000000000000E+00,      /* J =  1 */
(PID.TID 0000.0001)                 1.534280640463982E+04,      /* J =  2 */
(PID.TID 0000.0001)                 3.064865064477965E+04,      /* J =  3 */
(PID.TID 0000.0001)                 4.588065960101153E+04,      /* J =  4 */
(PID.TID 0000.0001)                 6.100213802959343E+04,      /* J =  5 */
(PID.TID 0000.0001)                 7.597665696450579E+04,      /* J =  6 */
(PID.TID 0000.0001)                 9.076814147802141E+04,      /* J =  7 */
(PID.TID 0000.0001)                 1.053409575883663E+05,      /* J =  8 */
(PID.TID 0000.0001)                 1.196599981051027E+05,      /* J =  9 */
(PID.TID 0000.0001)                 1.336907672054259E+05,      /* J = 10 */
(PID.TID 0000.0001)                 1.473994635376230E+05,      /* J = 11 */
(PID.TID 0000.0001)                 1.607530616514898E+05,      /* J = 12 */
(PID.TID 0000.0001)                 1.737193915595329E+05,      /* J = 13 */
(PID.TID 0000.0001)                 1.862672162372875E+05,      /* J = 14 */
(PID.TID 0000.0001)                 1.983663068760452E+05,      /* J = 15 */
(PID.TID 0000.0001)                 2.099875157067021E+05,      /* J = 16 */
(PID.TID 0000.0001)                 2.211028462192875E+05,      /* J = 17 */
(PID.TID 0000.0001)                 2.316855206090085E+05,      /* J = 18 */
(PID.TID 0000.0001)                 2.417100442863275E+05,      /* J = 19 */
(PID.TID 0000.0001)                 2.511522672956614E+05,      /* J = 20 */
(PID.TID 0000.0001)                 2.599894424947395E+05,      /* J = 21 */
(PID.TID 0000.0001)                 2.682002803544621E+05,      /* J = 22 */
(PID.TID 0000.0001)                 2.757650002472408E+05,      /* J = 23 */
(PID.TID 0000.0001)                 2.826653781002625E+05,      /* J = 24 */
(PID.TID 0000.0001)                 2.888847902988778E+05,      /* J = 25 */
(PID.TID 0000.0001)                 2.944082537343438E+05,      /* J = 26 */
(PID.TID 0000.0001)                 2.992224618994463E+05,      /* J = 27 */
(PID.TID 0000.0001)                 3.033158169450409E+05,      /* J = 28 */
(PID.TID 0000.0001)                 3.066784576202870E+05,      /* J = 29 */
(PID.TID 0000.0001)                 3.093022830292655E+05,      /* J = 30 */
(PID.TID 0000.0001)                 3.111809721467461E+05,      /* J = 31 */
(PID.TID 0000.0001)                 3.123099990460912E+05,      /* J = 32 */
(PID.TID 0000.0001)                 3.126866438026091E+05,      /* J = 33 */
(PID.TID 0000.0001)                 3.123099990460912E+05,      /* J = 34 */
(PID.TID 0000.0001)                 3.111809721467461E+05,      /* J = 35 */
(PID.TID 0000.0001)                 3.093022830292655E+05,      /* J = 36 */
(PID.TID 0000.0001)                 3.066784576202870E+05,      /* J = 37 */
(PID.TID 0000.0001)                 3.033158169450409E+05,      /* J = 38 */
(PID.TID 0000.0001)                 2.992224618994463E+05,      /* J = 39 */
(PID.TID 0000.0001)                 2.944082537343438E+05,      /* J = 40 */
(PID.TID 0000.0001)                 2.888847902988778E+05,      /* J = 41 */
(PID.TID 0000.0001)                 2.826653781002625E+05,      /* J = 42 */
(PID.TID 0000.0001)                 2.757650002472408E+05,      /* J = 43 */
(PID.TID 0000.0001)                 2.682002803544621E+05,      /* J = 44 */
(PID.TID 0000.0001)                 2.599894424947395E+05,      /* J = 45 */
(PID.TID 0000.0001)                 2.511522672956614E+05,      /* J = 46 */
(PID.TID 0000.0001)                 2.417100442863275E+05,      /* J = 47 */
(PID.TID 0000.0001)                 2.316855206090085E+05,      /* J = 48 */
(PID.TID 0000.0001)                 2.211028462192875E+05,      /* J = 49 */
(PID.TID 0000.0001)                 2.099875157067021E+05,      /* J = 50 */
(PID.TID 0000.0001)                 1.983663068760452E+05,      /* J = 51 */
(PID.TID 0000.0001)                 1.862672162372875E+05,      /* J = 52 */
(PID.TID 0000.0001)                 1.737193915595329E+05,      /* J = 53 */
(PID.TID 0000.0001)                 1.607530616514898E+05,      /* J = 54 */
(PID.TID 0000.0001)                 1.473994635376230E+05,      /* J = 55 */
(PID.TID 0000.0001)                 1.336907672054259E+05,      /* J = 56 */
(PID.TID 0000.0001)                 1.196599981051027E+05,      /* J = 57 */
(PID.TID 0000.0001)                 1.053409575883663E+05,      /* J = 58 */
(PID.TID 0000.0001)                 9.076814147802141E+04,      /* J = 59 */
(PID.TID 0000.0001)                 7.597665696450579E+04,      /* J = 60 */
(PID.TID 0000.0001)                 6.100213802959343E+04,      /* J = 61 */
(PID.TID 0000.0001)                 4.588065960101153E+04,      /* J = 62 */
(PID.TID 0000.0001)                 3.064865064477965E+04,      /* J = 63 */
(PID.TID 0000.0001)                 1.534280640463982E+04       /* J = 64 */
(PID.TID 0000.0001)     ;
(PID.TID 0000.0001) dyG =  /* dyG(:,1,:,1) ( m - cartesian, degrees - spherical ) */
(PID.TID 0000.0001)   128 @  3.126866438026091E+05              /* I =  1:128 */
(PID.TID 0000.0001)     ;
(PID.TID 0000.0001) dyG =  /* dyG(1,:,1,:) ( m - cartesian, degrees - spherical ) */
(PID.TID 0000.0001)    64 @  3.126866438026091E+05              /* J =  1: 64 */
(PID.TID 0000.0001)     ;
(PID.TID 0000.0001) dxC =  /* dxC(:,1,:,1) ( m - cartesian, degrees - spherical ) */
(PID.TID 0000.0001)   128 @  7.673714381622298E+03              /* I =  1:128 */
(PID.TID 0000.0001)     ;
(PID.TID 0000.0001) dxC =  /* dxC(1,:,1,:) ( m - cartesian, degrees - spherical ) */
(PID.TID 0000.0001)                 7.673714381622298E+03,      /* J =  1 */
(PID.TID 0000.0001)                 2.300265649478360E+04,      /* J =  2 */
(PID.TID 0000.0001)                 3.827618319365422E+04,      /* J =  3 */
(PID.TID 0000.0001)                 5.345749921461356E+04,      /* J =  4 */
(PID.TID 0000.0001)                 6.851003143764105E+04,      /* J =  5 */
(PID.TID 0000.0001)                 8.339751699416523E+04,      /* J =  6 */
(PID.TID 0000.0001)                 9.808409062749070E+04,      /* J =  7 */
(PID.TID 0000.0001)                 1.125343710953429E+05,      /* J =  8 */
(PID.TID 0000.0001)                 1.267135464063795E+05,      /* J =  9 */
(PID.TID 0000.0001)                 1.405874576853274E+05,      /* J = 10 */
(PID.TID 0000.0001)                 1.541226814647045E+05,      /* J = 11 */
(PID.TID 0000.0001)                 1.672866102048805E+05,      /* J = 12 */
(PID.TID 0000.0001)                 1.800475308484964E+05,      /* J = 13 */
(PID.TID 0000.0001)                 1.923747012199971E+05,      /* J = 14 */
(PID.TID 0000.0001)                 2.042384240862251E+05,      /* J = 15 */
(PID.TID 0000.0001)                 2.156101186996563E+05,      /* J = 16 */
(PID.TID 0000.0001)                 2.264623896519241E+05,      /* J = 17 */
(PID.TID 0000.0001)                 2.367690928717577E+05,      /* J = 18 */
(PID.TID 0000.0001)                 2.465053986083400E+05,      /* J = 19 */
(PID.TID 0000.0001)                 2.556478512483520E+05,      /* J = 20 */
(PID.TID 0000.0001)                 2.641744258225996E+05,      /* J = 21 */
(PID.TID 0000.0001)                 2.720645810660936E+05,      /* J = 22 */
(PID.TID 0000.0001)                 2.792993089037566E+05,      /* J = 23 */
(PID.TID 0000.0001)                 2.858611802425402E+05,      /* J = 24 */
(PID.TID 0000.0001)                 2.917343869596373E+05,      /* J = 25 */
(PID.TID 0000.0001)                 2.969047799856344E+05,      /* J = 26 */
(PID.TID 0000.0001)                 3.013599033908587E+05,      /* J = 27 */
(PID.TID 0000.0001)                 3.050890243928044E+05,      /* J = 28 */
(PID.TID 0000.0001)                 3.080831592123453E+05,      /* J = 29 */
(PID.TID 0000.0001)                 3.103350947164461E+05,      /* J = 30 */
(PID.TID 0000.0001)                 3.118394057952310E+05,      /* J = 31 */
(PID.TID 0000.0001)     2 @  3.125924684315491E+05,             /* J = 32: 33 */
(PID.TID 0000.0001)                 3.118394057952310E+05,      /* J = 34 */
(PID.TID 0000.0001)                 3.103350947164461E+05,      /* J = 35 */
(PID.TID 0000.0001)                 3.080831592123453E+05,      /* J = 36 */
(PID.TID 0000.0001)                 3.050890243928044E+05,      /* J = 37 */
(PID.TID 0000.0001)                 3.013599033908587E+05,      /* J = 38 */
(PID.TID 0000.0001)                 2.969047799856344E+05,      /* J = 39 */
(PID.TID 0000.0001)                 2.917343869596373E+05,      /* J = 40 */
(PID.TID 0000.0001)                 2.858611802425402E+05,      /* J = 41 */
(PID.TID 0000.0001)                 2.792993089037566E+05,      /* J = 42 */
(PID.TID 0000.0001)                 2.720645810660936E+05,      /* J = 43 */
(PID.TID 0000.0001)                 2.641744258225996E+05,      /* J = 44 */
(PID.TID 0000.0001)                 2.556478512483520E+05,      /* J = 45 */
(PID.TID 0000.0001)                 2.465053986083400E+05,      /* J = 46 */
(PID.TID 0000.0001)                 2.367690928717577E+05,      /* J = 47 */
(PID.TID 0000.0001)                 2.264623896519241E+05,      /* J = 48 */
(PID.TID 0000.0001)                 2.156101186996563E+05,      /* J = 49 */
(PID.TID 0000.0001)                 2.042384240862251E+05,      /* J = 50 */
(PID.TID 0000.0001)                 1.923747012199971E+05,      /* J = 51 */
(PID.TID 0000.0001)                 1.800475308484964E+05,      /* J = 52 */
(PID.TID 0000.0001)                 1.672866102048805E+05,      /* J = 53 */
(PID.TID 0000.0001)                 1.541226814647045E+05,      /* J = 54 */
(PID.TID 0000.0001)                 1.405874576853274E+05,      /* J = 55 */
(PID.TID 0000.0001)                 1.267135464063795E+05,      /* J = 56 */
(PID.TID 0000.0001)                 1.125343710953429E+05,      /* J = 57 */
(PID.TID 0000.0001)                 9.808409062749070E+04,      /* J = 58 */
(PID.TID 0000.0001)                 8.339751699416523E+04,      /* J = 59 */
(PID.TID 0000.0001)                 6.851003143764105E+04,      /* J = 60 */
(PID.TID 0000.0001)                 5.345749921461356E+04,      /* J = 61 */
(PID.TID 0000.0001)                 3.827618319365422E+04,      /* J = 62 */
(PID.TID 0000.0001)                 2.300265649478360E+04,      /* J = 63 */
(PID.TID 0000.0001)                 7.673714381622298E+03       /* J = 64 */
(PID.TID 0000.0001)     ;
(PID.TID 0000.0001) dyC =  /* dyC(:,1,:,1) ( m - cartesian, degrees - spherical ) */
(PID.TID 0000.0001)   128 @  3.126866438026091E+05              /* I =  1:128 */
(PID.TID 0000.0001)     ;
(PID.TID 0000.0001) dyC =  /* dyC(1,:,1,:) ( m - cartesian, degrees - spherical ) */
(PID.TID 0000.0001)    64 @  3.126866438026091E+05              /* J =  1: 64 */
(PID.TID 0000.0001)     ;
(PID.TID 0000.0001) dxV =  /* dxV(:,1,:,1) ( m - cartesian, degrees - spherical ) */
(PID.TID 0000.0001)   128 @  0.000000000000000E+00              /* I =  1:128 */
(PID.TID 0000.0001)     ;
(PID.TID 0000.0001) dxV =  /* dxV(1,:,1,:) ( m - cartesian, degrees - spherical ) */
(PID.TID 0000.0001)                 0.000000000000000E+00,      /* J =  1 */
(PID.TID 0000.0001)                 1.534280640463982E+04,      /* J =  2 */
(PID.TID 0000.0001)                 3.064865064477965E+04,      /* J =  3 */
(PID.TID 0000.0001)                 4.588065960101153E+04,      /* J =  4 */
(PID.TID 0000.0001)                 6.100213802959343E+04,      /* J =  5 */
(PID.TID 0000.0001)                 7.597665696450579E+04,      /* J =  6 */
(PID.TID 0000.0001)                 9.076814147802141E+04,      /* J =  7 */
(PID.TID 0000.0001)                 1.053409575883663E+05,      /* J =  8 */
(PID.TID 0000.0001)                 1.196599981051027E+05,      /* J =  9 */
(PID.TID 0000.0001)                 1.336907672054259E+05,      /* J = 10 */
(PID.TID 0000.0001)                 1.473994635376230E+05,      /* J = 11 */
(PID.TID 0000.0001)                 1.607530616514898E+05,      /* J = 12 */
(PID.TID 0000.0001)                 1.737193915595329E+05,      /* J = 13 */
(PID.TID 0000.0001)                 1.862672162372875E+05,      /* J = 14 */
(PID.TID 0000.0001)                 1.983663068760452E+05,      /* J = 15 */
(PID.TID 0000.0001)                 2.099875157067021E+05,      /* J = 16 */
(PID.TID 0000.0001)                 2.211028462192875E+05,      /* J = 17 */
(PID.TID 0000.0001)                 2.316855206090085E+05,      /* J = 18 */
(PID.TID 0000.0001)                 2.417100442863275E+05,      /* J = 19 */
(PID.TID 0000.0001)                 2.511522672956614E+05,      /* J = 20 */
(PID.TID 0000.0001)                 2.599894424947395E+05,      /* J = 21 */
(PID.TID 0000.0001)                 2.682002803544621E+05,      /* J = 22 */
(PID.TID 0000.0001)                 2.757650002472408E+05,      /* J = 23 */
(PID.TID 0000.0001)                 2.826653781002625E+05,      /* J = 24 */
(PID.TID 0000.0001)                 2.888847902988778E+05,      /* J = 25 */
(PID.TID 0000.0001)                 2.944082537343438E+05,      /* J = 26 */
(PID.TID 0000.0001)                 2.992224618994463E+05,      /* J = 27 */
(PID.TID 0000.0001)                 3.033158169450409E+05,      /* J = 28 */
(PID.TID 0000.0001)                 3.066784576202870E+05,      /* J = 29 */
(PID.TID 0000.0001)                 3.093022830292655E+05,      /* J = 30 */
(PID.TID 0000.0001)                 3.111809721467461E+05,      /* J = 31 */
(PID.TID 0000.0001)                 3.123099990460912E+05,      /* J = 32 */
(PID.TID 0000.0001)                 3.126866438026091E+05,      /* J = 33 */
(PID.TID 0000.0001)                 3.123099990460912E+05,      /* J = 34 */
(PID.TID 0000.0001)                 3.111809721467461E+05,      /* J = 35 */
(PID.TID 0000.0001)                 3.093022830292655E+05,      /* J = 36 */
(PID.TID 0000.0001)                 3.066784576202870E+05,      /* J = 37 */
(PID.TID 0000.0001)                 3.033158169450409E+05,      /* J = 38 */
(PID.TID 0000.0001)                 2.992224618994463E+05,      /* J = 39 */
(PID.TID 0000.0001)                 2.944082537343438E+05,      /* J = 40 */
(PID.TID 0000.0001)                 2.888847902988778E+05,      /* J = 41 */
(PID.TID 0000.0001)                 2.826653781002625E+05,      /* J = 42 */
(PID.TID 0000.0001)                 2.757650002472408E+05,      /* J = 43 */
(PID.TID 0000.0001)                 2.682002803544621E+05,      /* J = 44 */
(PID.TID 0000.0001)                 2.599894424947395E+05,      /* J = 45 */
(PID.TID 0000.0001)                 2.511522672956614E+05,      /* J = 46 */
(PID.TID 0000.0001)                 2.417100442863275E+05,      /* J = 47 */
(PID.TID 0000.0001)                 2.316855206090085E+05,      /* J = 48 */
(PID.TID 0000.0001)                 2.211028462192875E+05,      /* J = 49 */
(PID.TID 0000.0001)                 2.099875157067021E+05,      /* J = 50 */
(PID.TID 0000.0001)                 1.983663068760452E+05,      /* J = 51 */
(PID.TID 0000.0001)                 1.862672162372875E+05,      /* J = 52 */
(PID.TID 0000.0001)                 1.737193915595329E+05,      /* J = 53 */
(PID.TID 0000.0001)                 1.607530616514898E+05,      /* J = 54 */
(PID.TID 0000.0001)                 1.473994635376230E+05,      /* J = 55 */
(PID.TID 0000.0001)                 1.336907672054259E+05,      /* J = 56 */
(PID.TID 0000.0001)                 1.196599981051027E+05,      /* J = 57 */
(PID.TID 0000.0001)                 1.053409575883663E+05,      /* J = 58 */
(PID.TID 0000.0001)                 9.076814147802141E+04,      /* J = 59 */
(PID.TID 0000.0001)                 7.597665696450579E+04,      /* J = 60 */
(PID.TID 0000.0001)                 6.100213802959343E+04,      /* J = 61 */
(PID.TID 0000.0001)                 4.588065960101153E+04,      /* J = 62 */
(PID.TID 0000.0001)                 3.064865064477965E+04,      /* J = 63 */
(PID.TID 0000.0001)                 1.534280640463982E+04       /* J = 64 */
(PID.TID 0000.0001)     ;
(PID.TID 0000.0001) dyU =  /* dyU(:,1,:,1) ( m - cartesian, degrees - spherical ) */
(PID.TID 0000.0001)   128 @  3.126866438026091E+05              /* I =  1:128 */
(PID.TID 0000.0001)     ;
(PID.TID 0000.0001) dyU =  /* dyU(1,:,1,:) ( m - cartesian, degrees - spherical ) */
(PID.TID 0000.0001)    64 @  3.126866438026091E+05              /* J =  1: 64 */
(PID.TID 0000.0001)     ;
(PID.TID 0000.0001) rA =  /* rA(:,1,:,1) ( m - cartesian, degrees - spherical ) */
(PID.TID 0000.0001)   128 @  2.399227099019018E+09              /* I =  1:128 */
(PID.TID 0000.0001)     ;
(PID.TID 0000.0001) rA =  /* rA(1,:,1,:) ( m - cartesian, degrees - spherical ) */
(PID.TID 0000.0001)                 2.399227099019018E+09,      /* J =  1 */
(PID.TID 0000.0001)                 7.191901348828057E+09,      /* J =  2 */
(PID.TID 0000.0001)                 1.196724967835171E+10,      /* J =  3 */
(PID.TID 0000.0001)                 1.671376785519299E+10,      /* J =  4 */
(PID.TID 0000.0001)                 2.142002110131771E+10,      /* J =  5 */
(PID.TID 0000.0001)                 2.607467164043704E+10,      /* J =  6 */
(PID.TID 0000.0001)                 3.066650601170350E+10,      /* J =  7 */
(PID.TID 0000.0001)                 3.518446208391881E+10,      /* J =  8 */
(PID.TID 0000.0001)                 3.961765570517892E+10,      /* J =  9 */
(PID.TID 0000.0001)                 4.395540692374861E+10,      /* J = 10 */
(PID.TID 0000.0001)                 4.818726571700000E+10,      /* J = 11 */
(PID.TID 0000.0001)                 5.230303716643333E+10,      /* J = 12 */
(PID.TID 0000.0001)                 5.629280601812741E+10,      /* J = 13 */
(PID.TID 0000.0001)                 6.014696056945659E+10,      /* J = 14 */
(PID.TID 0000.0001)                 6.385621582452238E+10,      /* J = 15 */
(PID.TID 0000.0001)                 6.741163586252304E+10,      /* J = 16 */
(PID.TID 0000.0001)                 7.080465536516847E+10,      /* J = 17 */
(PID.TID 0000.0001)                 7.402710025128452E+10,      /* J = 18 */
(PID.TID 0000.0001)                 7.707120736888658E+10,      /* J = 19 */
(PID.TID 0000.0001)                 7.992964319729683E+10,      /* J = 20 */
(PID.TID 0000.0001)                 8.259552151423444E+10,      /* J = 21 */
(PID.TID 0000.0001)                 8.506241998533159E+10,      /* J = 22 */
(PID.TID 0000.0001)                 8.732439563609566E+10,      /* J = 23 */
(PID.TID 0000.0001)                 8.937599916905872E+10,      /* J = 24 */
(PID.TID 0000.0001)                 9.121228809161066E+10,      /* J = 25 */
(PID.TID 0000.0001)                 9.282883862289705E+10,      /* J = 26 */
(PID.TID 0000.0001)                 9.422175635109474E+10,      /* J = 27 */
(PID.TID 0000.0001)                 9.538768561539165E+10,      /* J = 28 */
(PID.TID 0000.0001)                 9.632381759006651E+10,      /* J = 29 */
(PID.TID 0000.0001)                 9.702789705119698E+10,      /* J = 30 */
(PID.TID 0000.0001)                 9.749822780969106E+10,      /* J = 31 */
(PID.TID 0000.0001)     2 @  9.773367679755542E+10,             /* J = 32: 33 */
(PID.TID 0000.0001)                 9.749822780969106E+10,      /* J = 34 */
(PID.TID 0000.0001)                 9.702789705119698E+10,      /* J = 35 */
(PID.TID 0000.0001)                 9.632381759006651E+10,      /* J = 36 */
(PID.TID 0000.0001)                 9.538768561539165E+10,      /* J = 37 */
(PID.TID 0000.0001)                 9.422175635109474E+10,      /* J = 38 */
(PID.TID 0000.0001)                 9.282883862289705E+10,      /* J = 39 */
(PID.TID 0000.0001)                 9.121228809161066E+10,      /* J = 40 */
(PID.TID 0000.0001)                 8.937599916905872E+10,      /* J = 41 */
(PID.TID 0000.0001)                 8.732439563609566E+10,      /* J = 42 */
(PID.TID 0000.0001)                 8.506241998533159E+10,      /* J = 43 */
(PID.TID 0000.0001)                 8.259552151423444E+10,      /* J = 44 */
(PID.TID 0000.0001)                 7.992964319729683E+10,      /* J = 45 */
(PID.TID 0000.0001)                 7.707120736888658E+10,      /* J = 46 */
(PID.TID 0000.0001)                 7.402710025128452E+10,      /* J = 47 */
(PID.TID 0000.0001)                 7.080465536516847E+10,      /* J = 48 */
(PID.TID 0000.0001)                 6.741163586252304E+10,      /* J = 49 */
(PID.TID 0000.0001)                 6.385621582452238E+10,      /* J = 50 */
(PID.TID 0000.0001)                 6.014696056945659E+10,      /* J = 51 */
(PID.TID 0000.0001)                 5.629280601812741E+10,      /* J = 52 */
(PID.TID 0000.0001)                 5.230303716643333E+10,      /* J = 53 */
(PID.TID 0000.0001)                 4.818726571700000E+10,      /* J = 54 */
(PID.TID 0000.0001)                 4.395540692374861E+10,      /* J = 55 */
(PID.TID 0000.0001)                 3.961765570517892E+10,      /* J = 56 */
(PID.TID 0000.0001)                 3.518446208391881E+10,      /* J = 57 */
(PID.TID 0000.0001)                 3.066650601170350E+10,      /* J = 58 */
(PID.TID 0000.0001)                 2.607467164043704E+10,      /* J = 59 */
(PID.TID 0000.0001)                 2.142002110131771E+10,      /* J = 60 */
(PID.TID 0000.0001)                 1.671376785519299E+10,      /* J = 61 */
(PID.TID 0000.0001)                 1.196724967835171E+10,      /* J = 62 */
(PID.TID 0000.0001)                 7.191901348828057E+09,      /* J = 63 */
(PID.TID 0000.0001)                 2.399227099019018E+09       /* J = 64 */
(PID.TID 0000.0001)     ;
(PID.TID 0000.0001) rAw =  /* rAw(:,1,:,1) ( m - cartesian, degrees - spherical ) */
(PID.TID 0000.0001)   128 @  2.399227099019018E+09              /* I =  1:128 */
(PID.TID 0000.0001)     ;
(PID.TID 0000.0001) rAw =  /* rAw(1,:,1,:) ( m - cartesian, degrees - spherical ) */
(PID.TID 0000.0001)                 2.399227099019018E+09,      /* J =  1 */
(PID.TID 0000.0001)                 7.191901348828057E+09,      /* J =  2 */
(PID.TID 0000.0001)                 1.196724967835171E+10,      /* J =  3 */
(PID.TID 0000.0001)                 1.671376785519299E+10,      /* J =  4 */
(PID.TID 0000.0001)                 2.142002110131771E+10,      /* J =  5 */
(PID.TID 0000.0001)                 2.607467164043704E+10,      /* J =  6 */
(PID.TID 0000.0001)                 3.066650601170350E+10,      /* J =  7 */
(PID.TID 0000.0001)                 3.518446208391881E+10,      /* J =  8 */
(PID.TID 0000.0001)                 3.961765570517892E+10,      /* J =  9 */
(PID.TID 0000.0001)                 4.395540692374861E+10,      /* J = 10 */
(PID.TID 0000.0001)                 4.818726571700000E+10,      /* J = 11 */
(PID.TID 0000.0001)                 5.230303716643333E+10,      /* J = 12 */
(PID.TID 0000.0001)                 5.629280601812741E+10,      /* J = 13 */
(PID.TID 0000.0001)                 6.014696056945659E+10,      /* J = 14 */
(PID.TID 0000.0001)                 6.385621582452238E+10,      /* J = 15 */
(PID.TID 0000.0001)                 6.741163586252304E+10,      /* J = 16 */
(PID.TID 0000.0001)                 7.080465536516847E+10,      /* J = 17 */
(PID.TID 0000.0001)                 7.402710025128452E+10,      /* J = 18 */
(PID.TID 0000.0001)                 7.707120736888658E+10,      /* J = 19 */
(PID.TID 0000.0001)                 7.992964319729683E+10,      /* J = 20 */
(PID.TID 0000.0001)                 8.259552151423444E+10,      /* J = 21 */
(PID.TID 0000.0001)                 8.506241998533159E+10,      /* J = 22 */
(PID.TID 0000.0001)                 8.732439563609566E+10,      /* J = 23 */
(PID.TID 0000.0001)                 8.937599916905872E+10,      /* J = 24 */
(PID.TID 0000.0001)                 9.121228809161066E+10,      /* J = 25 */
(PID.TID 0000.0001)                 9.282883862289705E+10,      /* J = 26 */
(PID.TID 0000.0001)                 9.422175635109474E+10,      /* J = 27 */
(PID.TID 0000.0001)                 9.538768561539165E+10,      /* J = 28 */
(PID.TID 0000.0001)                 9.632381759006651E+10,      /* J = 29 */
(PID.TID 0000.0001)                 9.702789705119698E+10,      /* J = 30 */
(PID.TID 0000.0001)                 9.749822780969106E+10,      /* J = 31 */
(PID.TID 0000.0001)     2 @  9.773367679755542E+10,             /* J = 32: 33 */
(PID.TID 0000.0001)                 9.749822780969106E+10,      /* J = 34 */
(PID.TID 0000.0001)                 9.702789705119698E+10,      /* J = 35 */
(PID.TID 0000.0001)                 9.632381759006651E+10,      /* J = 36 */
(PID.TID 0000.0001)                 9.538768561539165E+10,      /* J = 37 */
(PID.TID 0000.0001)                 9.422175635109474E+10,      /* J = 38 */
(PID.TID 0000.0001)                 9.282883862289705E+10,      /* J = 39 */
(PID.TID 0000.0001)                 9.121228809161066E+10,      /* J = 40 */
(PID.TID 0000.0001)                 8.937599916905872E+10,      /* J = 41 */
(PID.TID 0000.0001)                 8.732439563609566E+10,      /* J = 42 */
(PID.TID 0000.0001)                 8.506241998533159E+10,      /* J = 43 */
(PID.TID 0000.0001)                 8.259552151423444E+10,      /* J = 44 */
(PID.TID 0000.0001)                 7.992964319729683E+10,      /* J = 45 */
(PID.TID 0000.0001)                 7.707120736888658E+10,      /* J = 46 */
(PID.TID 0000.0001)                 7.402710025128452E+10,      /* J = 47 */
(PID.TID 0000.0001)                 7.080465536516847E+10,      /* J = 48 */
(PID.TID 0000.0001)                 6.741163586252304E+10,      /* J = 49 */
(PID.TID 0000.0001)                 6.385621582452238E+10,      /* J = 50 */
(PID.TID 0000.0001)                 6.014696056945659E+10,      /* J = 51 */
(PID.TID 0000.0001)                 5.629280601812741E+10,      /* J = 52 */
(PID.TID 0000.0001)                 5.230303716643333E+10,      /* J = 53 */
(PID.TID 0000.0001)                 4.818726571700000E+10,      /* J = 54 */
(PID.TID 0000.0001)                 4.395540692374861E+10,      /* J = 55 */
(PID.TID 0000.0001)                 3.961765570517892E+10,      /* J = 56 */
(PID.TID 0000.0001)                 3.518446208391881E+10,      /* J = 57 */
(PID.TID 0000.0001)                 3.066650601170350E+10,      /* J = 58 */
(PID.TID 0000.0001)                 2.607467164043704E+10,      /* J = 59 */
(PID.TID 0000.0001)                 2.142002110131771E+10,      /* J = 60 */
(PID.TID 0000.0001)                 1.671376785519299E+10,      /* J = 61 */
(PID.TID 0000.0001)                 1.196724967835171E+10,      /* J = 62 */
(PID.TID 0000.0001)                 7.191901348828057E+09,      /* J = 63 */
(PID.TID 0000.0001)                 2.399227099019018E+09       /* J = 64 */
(PID.TID 0000.0001)     ;
(PID.TID 0000.0001) rAs =  /* rAs(:,1,:,1) ( m - cartesian, degrees - spherical ) */
(PID.TID 0000.0001)   128 @  0.000000000000000E+00              /* I =  1:128 */
(PID.TID 0000.0001)     ;
(PID.TID 0000.0001) rAs =  /* rAs(1,:,1,:) ( m - cartesian, degrees - spherical ) */
(PID.TID 0000.0001)                 0.000000000000000E+00,      /* J =  1 */
(PID.TID 0000.0001)                 4.797008993346594E+09,      /* J =  2 */
(PID.TID 0000.0001)                 9.582461571859739E+09,      /* J =  3 */
(PID.TID 0000.0001)                 1.434482916112175E+10,      /* J =  4 */
(PID.TID 0000.0001)                 1.907263880047595E+10,      /* J =  5 */
(PID.TID 0000.0001)                 2.375450078239423E+10,      /* J =  6 */
(PID.TID 0000.0001)                 2.837913609127882E+10,      /* J =  7 */
(PID.TID 0000.0001)                 3.293540357560111E+10,      /* J =  8 */
(PID.TID 0000.0001)                 3.741232678790871E+10,      /* J =  9 */
(PID.TID 0000.0001)                 4.179912042805190E+10,      /* J = 10 */
(PID.TID 0000.0001)                 4.608521632591324E+10,      /* J = 11 */
(PID.TID 0000.0001)                 5.026028890105701E+10,      /* J = 12 */
(PID.TID 0000.0001)                 5.431428003795676E+10,      /* J = 13 */
(PID.TID 0000.0001)                 5.823742331687642E+10,      /* J = 14 */
(PID.TID 0000.0001)                 6.202026754202965E+10,      /* J = 15 */
(PID.TID 0000.0001)                 6.565369951034003E+10,      /* J = 16 */
(PID.TID 0000.0001)                 6.912896596594559E+10,      /* J = 17 */
(PID.TID 0000.0001)                 7.243769468755634E+10,      /* J = 18 */
(PID.TID 0000.0001)                 7.557191465787256E+10,      /* J = 19 */
(PID.TID 0000.0001)                 7.852407526645966E+10,      /* J = 20 */
(PID.TID 0000.0001)                 8.128706449983365E+10,      /* J = 21 */
(PID.TID 0000.0001)                 8.385422607492098E+10,      /* J = 22 */
(PID.TID 0000.0001)                 8.621937547463149E+10,      /* J = 23 */
(PID.TID 0000.0001)                 8.837681484689812E+10,      /* J = 24 */
(PID.TID 0000.0001)                 9.032134673130377E+10,      /* J = 25 */
(PID.TID 0000.0001)                 9.204828658021816E+10,      /* J = 26 */
(PID.TID 0000.0001)                 9.355347404428317E+10,      /* J = 27 */
(PID.TID 0000.0001)                 9.483328299505898E+10,      /* J = 28 */
(PID.TID 0000.0001)                 9.588463026068500E+10,      /* J = 29 */
(PID.TID 0000.0001)                 9.670498305351135E+10,      /* J = 30 */
(PID.TID 0000.0001)                 9.729236507180571E+10,      /* J = 31 */
(PID.TID 0000.0001)                 9.764536126083740E+10,      /* J = 32 */
(PID.TID 0000.0001)                 9.776312122186816E+10,      /* J = 33 */
(PID.TID 0000.0001)                 9.764536126083740E+10,      /* J = 34 */
(PID.TID 0000.0001)                 9.729236507180571E+10,      /* J = 35 */
(PID.TID 0000.0001)                 9.670498305351135E+10,      /* J = 36 */
(PID.TID 0000.0001)                 9.588463026068500E+10,      /* J = 37 */
(PID.TID 0000.0001)                 9.483328299505898E+10,      /* J = 38 */
(PID.TID 0000.0001)                 9.355347404428317E+10,      /* J = 39 */
(PID.TID 0000.0001)                 9.204828658021816E+10,      /* J = 40 */
(PID.TID 0000.0001)                 9.032134673130377E+10,      /* J = 41 */
(PID.TID 0000.0001)                 8.837681484689812E+10,      /* J = 42 */
(PID.TID 0000.0001)                 8.621937547463149E+10,      /* J = 43 */
(PID.TID 0000.0001)                 8.385422607492098E+10,      /* J = 44 */
(PID.TID 0000.0001)                 8.128706449983365E+10,      /* J = 45 */
(PID.TID 0000.0001)                 7.852407526645966E+10,      /* J = 46 */
(PID.TID 0000.0001)                 7.557191465787256E+10,      /* J = 47 */
(PID.TID 0000.0001)                 7.243769468755634E+10,      /* J = 48 */
(PID.TID 0000.0001)                 6.912896596594559E+10,      /* J = 49 */
(PID.TID 0000.0001)                 6.565369951034003E+10,      /* J = 50 */
(PID.TID 0000.0001)                 6.202026754202965E+10,      /* J = 51 */
(PID.TID 0000.0001)                 5.823742331687642E+10,      /* J = 52 */
(PID.TID 0000.0001)                 5.431428003795676E+10,      /* J = 53 */
(PID.TID 0000.0001)                 5.026028890105701E+10,      /* J = 54 */
(PID.TID 0000.0001)                 4.608521632591324E+10,      /* J = 55 */
(PID.TID 0000.0001)                 4.179912042805190E+10,      /* J = 56 */
(PID.TID 0000.0001)                 3.741232678790871E+10,      /* J = 57 */
(PID.TID 0000.0001)                 3.293540357560111E+10,      /* J = 58 */
(PID.TID 0000.0001)                 2.837913609127882E+10,      /* J = 59 */
(PID.TID 0000.0001)                 2.375450078239423E+10,      /* J = 60 */
(PID.TID 0000.0001)                 1.907263880047595E+10,      /* J = 61 */
(PID.TID 0000.0001)                 1.434482916112175E+10,      /* J = 62 */
(PID.TID 0000.0001)                 9.582461571859739E+09,      /* J = 63 */
(PID.TID 0000.0001)                 4.797008993346594E+09       /* J = 64 */
(PID.TID 0000.0001)     ;
(PID.TID 0000.0001) 
(PID.TID 0000.0001)  MDSREADFIELD: opening global file: pickup.0000025920
(PID.TID 0000.0001)  MDSREADFIELD: opening global file: pickup.0000025920
(PID.TID 0000.0001)  MDSREADFIELD: opening global file: pickup.0000025920
(PID.TID 0000.0001)  MDSREADFIELD: opening global file: pickup.0000025920
(PID.TID 0000.0001)  MDSREADFIELD: opening global file: pickup.0000025920
(PID.TID 0000.0001)  MDSREADFIELD: opening global file: pickup.0000025920
(PID.TID 0000.0001)  MDSREADFIELD: opening global file: pickup.0000025920
(PID.TID 0000.0001)  MDSREADFIELD: opening global file: pickup.0000025920
(PID.TID 0000.0001)  MDSREADFIELD: opening global file: pickup.0000025920
(PID.TID 0000.0001)  MDSREADFIELD: opening global file: pickup.0000025920
(PID.TID 0000.0001)  MDSREADFIELD: opening global file: pickup.0000025920
(PID.TID 0000.0001)  MDSREADFIELD: opening global file: pickup.0000025920
(PID.TID 0000.0001)  MDSREADFIELD: opening global file: pickup.0000025920
(PID.TID 0000.0001) // =======================================================
(PID.TID 0000.0001) // Model current state
(PID.TID 0000.0001) // =======================================================
(PID.TID 0000.0001) 
(PID.TID 0000.0001) // =======================================================
(PID.TID 0000.0001) // Begin MONITOR dynamic field statistics
(PID.TID 0000.0001) // =======================================================
(PID.TID 0000.0001) %MON time_tsnumber                =                 25920
(PID.TID 0000.0001) %MON time_secondsf                =   7.7760000000000E+06
(PID.TID 0000.0001) %MON time_secondsi                =               7776000
(PID.TID 0000.0001) %MON dynstat_eta_max              =   2.8132672879936E+03
(PID.TID 0000.0001) %MON dynstat_eta_min              =  -6.8584202770082E+03
(PID.TID 0000.0001) %MON dynstat_eta_mean             =  -8.2250102589891E+02
(PID.TID 0000.0001) %MON dynstat_eta_sd               =   2.1974450080445E+03
(PID.TID 0000.0001) %MON dynstat_uvel_max             =   7.9058253282348E+01
(PID.TID 0000.0001) %MON dynstat_uvel_min             =  -4.4006160808694E+01
(PID.TID 0000.0001) %MON dynstat_uvel_mean            =   7.9129948905202E+00
(PID.TID 0000.0001) %MON dynstat_uvel_sd              =   1.5738778280521E+01
(PID.TID 0000.0001) %MON dynstat_vvel_max             =   4.0204578699737E+01
(PID.TID 0000.0001) %MON dynstat_vvel_min             =  -3.1373724809627E+01
(PID.TID 0000.0001) %MON dynstat_vvel_mean            =  -2.2527004079666E-02
(PID.TID 0000.0001) %MON dynstat_vvel_sd              =   6.6724654876158E+00
(PID.TID 0000.0001) %MON dynstat_wvel_max             =   0.0000000000000E+00
(PID.TID 0000.0001) %MON dynstat_wvel_min             =   0.0000000000000E+00
(PID.TID 0000.0001) %MON dynstat_wvel_mean            =   0.0000000000000E+00
(PID.TID 0000.0001) %MON dynstat_wvel_sd              =   0.0000000000000E+00
(PID.TID 0000.0001) %MON dynstat_theta_max            =   4.7784318176346E+02
(PID.TID 0000.0001) %MON dynstat_theta_min            =   2.4202283979600E+02
(PID.TID 0000.0001) %MON dynstat_theta_mean           =   3.3416045826584E+02
(PID.TID 0000.0001) %MON dynstat_theta_sd             =   6.2228650415238E+01
(PID.TID 0000.0001) %MON dynstat_salt_max             =   1.6257034529941E+01
(PID.TID 0000.0001) %MON dynstat_salt_min             =  -1.3451612202414E-01
(PID.TID 0000.0001) %MON dynstat_salt_mean            =   2.1454786946585E+00
(PID.TID 0000.0001) %MON dynstat_salt_sd              =   3.4942619205522E+00
(PID.TID 0000.0001) %MON advcfl_uvel_max              =   1.6003643615242E-01
(PID.TID 0000.0001) %MON advcfl_vvel_max              =   3.8573357221919E-02
(PID.TID 0000.0001) %MON advcfl_wvel_max              =   0.0000000000000E+00
(PID.TID 0000.0001) %MON advcfl_W_hf_max              =   0.0000000000000E+00
(PID.TID 0000.0001) %MON ke_max                       =   3.1647758438577E+03
(PID.TID 0000.0001) %MON ke_mean                      =   1.7586231954310E+02
(PID.TID 0000.0001) // =======================================================
(PID.TID 0000.0001) // End MONITOR dynamic field statistics
(PID.TID 0000.0001) // =======================================================
(PID.TID 0000.0001)  MDSREADFIELD: opening global file: salb.apr.sun.b
(PID.TID 0000.0001)  MDSREADFIELD: opening global file: tsurf.apr.sun.b
(PID.TID 0000.0001)  MDSREADFIELD: opening global file: smoist.apr.sun.b
 cg2d: Sum(rhs),rhsMax =  -1.67835103720758E+03  8.05588732120916E+02
(PID.TID 0000.0001)                    cg2d_init_res =    2.00087284546915E+03
(PID.TID 0000.0001)                       cg2d_iters =   121
(PID.TID 0000.0001)                         cg2d_res =    3.50584404645234E-12
(PID.TID 0000.0001) // =======================================================
(PID.TID 0000.0001) // Begin MONITOR dynamic field statistics
(PID.TID 0000.0001) // =======================================================
(PID.TID 0000.0001) %MON time_tsnumber                =                 25921
(PID.TID 0000.0001) %MON time_secondsf                =   7.7763000000000E+06
(PID.TID 0000.0001) %MON time_secondsi                =               7776300
(PID.TID 0000.0001) %MON dynstat_eta_max              =   2.8405110908010E+03
(PID.TID 0000.0001) %MON dynstat_eta_min              =  -6.8526608276504E+03
(PID.TID 0000.0001) %MON dynstat_eta_mean             =  -8.2265765076909E+02
(PID.TID 0000.0001) %MON dynstat_eta_sd               =   2.1991837277910E+03
(PID.TID 0000.0001) %MON dynstat_uvel_max             =   7.9034156397930E+01
(PID.TID 0000.0001) %MON dynstat_uvel_min             =  -4.4024496226919E+01
(PID.TID 0000.0001) %MON dynstat_uvel_mean            =   7.9135674335262E+00
(PID.TID 0000.0001) %MON dynstat_uvel_sd              =   1.5738407127539E+01
(PID.TID 0000.0001) %MON dynstat_vvel_max             =   4.0193662884952E+01
(PID.TID 0000.0001) %MON dynstat_vvel_min             =  -3.1404266894507E+01
(PID.TID 0000.0001) %MON dynstat_vvel_mean            =  -2.1902198563702E-02
(PID.TID 0000.0001) %MON dynstat_vvel_sd              =   6.6706628670398E+00
(PID.TID 0000.0001) %MON dynstat_wvel_max             =   1.4282507909756E+00
(PID.TID 0000.0001) %MON dynstat_wvel_min             =  -5.7179506551879E+00
(PID.TID 0000.0001) %MON dynstat_wvel_mean            =   3.5728834818788E-04
(PID.TID 0000.0001) %MON dynstat_wvel_sd              =   1.0446580469973E-01
(PID.TID 0000.0001) %MON dynstat_theta_max            =   4.7784655260606E+02
(PID.TID 0000.0001) %MON dynstat_theta_min            =   2.4203029572529E+02
(PID.TID 0000.0001) %MON dynstat_theta_mean           =   3.3416104275538E+02
(PID.TID 0000.0001) %MON dynstat_theta_sd             =   6.2228084174181E+01
(PID.TID 0000.0001) %MON dynstat_salt_max             =   1.6239164307160E+01
(PID.TID 0000.0001) %MON dynstat_salt_min             =  -1.3453519513134E-01
(PID.TID 0000.0001) %MON dynstat_salt_mean            =   2.1456671540093E+00
(PID.TID 0000.0001) %MON dynstat_salt_sd              =   3.4944012268051E+00
(PID.TID 0000.0001) %MON advcfl_uvel_max              =   1.7004427015314E-01
(PID.TID 0000.0001) %MON advcfl_vvel_max              =   3.8562884294788E-02
(PID.TID 0000.0001) %MON advcfl_wvel_max              =   6.2377643511140E-02
(PID.TID 0000.0001) %MON advcfl_W_hf_max              =   1.0478494860214E-01
(PID.TID 0000.0001) %MON ke_max                       =   3.1630597568829E+03
(PID.TID 0000.0001) %MON ke_mean                      =   1.7584927088173E+02
(PID.TID 0000.0001) // =======================================================
(PID.TID 0000.0001) // End MONITOR dynamic field statistics
(PID.TID 0000.0001) // =======================================================
 cg2d: Sum(rhs),rhsMax =  -1.67835103720857E+03  7.34581128255733E+02
(PID.TID 0000.0001)                    cg2d_init_res =    6.29820627706618E+02
(PID.TID 0000.0001)                       cg2d_iters =   116
(PID.TID 0000.0001)                         cg2d_res =    3.17640563217511E-12
(PID.TID 0000.0001) // =======================================================
(PID.TID 0000.0001) // Begin MONITOR dynamic field statistics
(PID.TID 0000.0001) // =======================================================
(PID.TID 0000.0001) %MON time_tsnumber                =                 25922
(PID.TID 0000.0001) %MON time_secondsf                =   7.7766000000000E+06
(PID.TID 0000.0001) %MON time_secondsi                =               7776600
(PID.TID 0000.0001) %MON dynstat_eta_max              =   2.8655743696995E+03
(PID.TID 0000.0001) %MON dynstat_eta_min              =  -6.8499480032987E+03
(PID.TID 0000.0001) %MON dynstat_eta_mean             =  -8.2286063482030E+02
(PID.TID 0000.0001) %MON dynstat_eta_sd               =   2.2005937748289E+03
(PID.TID 0000.0001) %MON dynstat_uvel_max             =   7.9012181941907E+01
(PID.TID 0000.0001) %MON dynstat_uvel_min             =  -4.4036203429319E+01
(PID.TID 0000.0001) %MON dynstat_uvel_mean            =   7.9139083999898E+00
(PID.TID 0000.0001) %MON dynstat_uvel_sd              =   1.5738479158953E+01
(PID.TID 0000.0001) %MON dynstat_vvel_max             =   4.0178119624256E+01
(PID.TID 0000.0001) %MON dynstat_vvel_min             =  -3.1432455287160E+01
(PID.TID 0000.0001) %MON dynstat_vvel_mean            =  -2.1311957628042E-02
(PID.TID 0000.0001) %MON dynstat_vvel_sd              =   6.6690179786361E+00
(PID.TID 0000.0001) %MON dynstat_wvel_max             =   2.8681613840112E+00
(PID.TID 0000.0001) %MON dynstat_wvel_min             =  -1.2593853486337E+00
(PID.TID 0000.0001) %MON dynstat_wvel_mean            =   1.0075630080686E-03
(PID.TID 0000.0001) %MON dynstat_wvel_sd              =   8.6474755597939E-02
(PID.TID 0000.0001) %MON dynstat_theta_max            =   4.7784989766643E+02
(PID.TID 0000.0001) %MON dynstat_theta_min            =   2.4204893884441E+02
(PID.TID 0000.0001) %MON dynstat_theta_mean           =   3.3416163422621E+02
(PID.TID 0000.0001) %MON dynstat_theta_sd             =   6.2227343527631E+01
(PID.TID 0000.0001) %MON dynstat_salt_max             =   1.6221302543755E+01
(PID.TID 0000.0001) %MON dynstat_salt_min             =  -1.3465398699007E-01
(PID.TID 0000.0001) %MON dynstat_salt_mean            =   2.1458131084374E+00
(PID.TID 0000.0001) %MON dynstat_salt_sd              =   3.4945569789151E+00
(PID.TID 0000.0001) %MON advcfl_uvel_max              =   1.7128701316982E-01
(PID.TID 0000.0001) %MON advcfl_vvel_max              =   3.8547971671236E-02
(PID.TID 0000.0001) %MON advcfl_wvel_max              =   6.1014299719451E-02
(PID.TID 0000.0001) %MON advcfl_W_hf_max              =   6.6414349978953E-02
(PID.TID 0000.0001) %MON ke_max                       =   3.1613456278702E+03
(PID.TID 0000.0001) %MON ke_mean                      =   1.7584236170623E+02
(PID.TID 0000.0001) // =======================================================
(PID.TID 0000.0001) // End MONITOR dynamic field statistics
(PID.TID 0000.0001) // =======================================================
 cg2d: Sum(rhs),rhsMax =  -1.67835103720646E+03  7.34433090775465E+02
(PID.TID 0000.0001)                    cg2d_init_res =    2.93484152097745E+02
(PID.TID 0000.0001)                       cg2d_iters =   115
(PID.TID 0000.0001)                         cg2d_res =    2.86118605152152E-12
(PID.TID 0000.0001) // =======================================================
(PID.TID 0000.0001) // Begin MONITOR dynamic field statistics
(PID.TID 0000.0001) // =======================================================
(PID.TID 0000.0001) %MON time_tsnumber                =                 25923
(PID.TID 0000.0001) %MON time_secondsf                =   7.7769000000000E+06
(PID.TID 0000.0001) %MON time_secondsi                =               7776900
(PID.TID 0000.0001) %MON dynstat_eta_max              =   2.8808314549333E+03
(PID.TID 0000.0001) %MON dynstat_eta_min              =  -6.8475334629508E+03
(PID.TID 0000.0001) %MON dynstat_eta_mean             =  -8.2307662348600E+02
(PID.TID 0000.0001) %MON dynstat_eta_sd               =   2.2017876127496E+03
(PID.TID 0000.0001) %MON dynstat_uvel_max             =   7.8990688664788E+01
(PID.TID 0000.0001) %MON dynstat_uvel_min             =  -4.4048890849751E+01
(PID.TID 0000.0001) %MON dynstat_uvel_mean            =   7.9142873359211E+00
(PID.TID 0000.0001) %MON dynstat_uvel_sd              =   1.5738565911291E+01
(PID.TID 0000.0001) %MON dynstat_vvel_max             =   4.0158051346561E+01
(PID.TID 0000.0001) %MON dynstat_vvel_min             =  -3.1459120811807E+01
(PID.TID 0000.0001) %MON dynstat_vvel_mean            =  -2.0767173151702E-02
(PID.TID 0000.0001) %MON dynstat_vvel_sd              =   6.6673782806403E+00
(PID.TID 0000.0001) %MON dynstat_wvel_max             =   3.0520671297465E+00
(PID.TID 0000.0001) %MON dynstat_wvel_min             =  -1.7913261549819E+00
(PID.TID 0000.0001) %MON dynstat_wvel_mean            =   8.1387324878757E-04
(PID.TID 0000.0001) %MON dynstat_wvel_sd              =   8.3779421726755E-02
(PID.TID 0000.0001) %MON dynstat_theta_max            =   4.7785298655549E+02
(PID.TID 0000.0001) %MON dynstat_theta_min            =   2.4205737891881E+02
(PID.TID 0000.0001) %MON dynstat_theta_mean           =   3.3416208511436E+02
(PID.TID 0000.0001) %MON dynstat_theta_sd             =   6.2226777750837E+01
(PID.TID 0000.0001) %MON dynstat_salt_max             =   1.6203738186737E+01
(PID.TID 0000.0001) %MON dynstat_salt_min             =  -1.3478747613684E-01
(PID.TID 0000.0001) %MON dynstat_salt_mean            =   2.1460099512661E+00
(PID.TID 0000.0001) %MON dynstat_salt_sd              =   3.4947346133870E+00
(PID.TID 0000.0001) %MON advcfl_uvel_max              =   1.7047696598054E-01
(PID.TID 0000.0001) %MON advcfl_vvel_max              =   3.8528717624324E-02
(PID.TID 0000.0001) %MON advcfl_wvel_max              =   6.3651257170465E-02
(PID.TID 0000.0001) %MON advcfl_W_hf_max              =   6.5018513227093E-02
(PID.TID 0000.0001) %MON ke_max                       =   3.1596605351199E+03
(PID.TID 0000.0001) %MON ke_mean                      =   1.7583601900760E+02
(PID.TID 0000.0001) // =======================================================
(PID.TID 0000.0001) // End MONITOR dynamic field statistics
(PID.TID 0000.0001) // =======================================================
 cg2d: Sum(rhs),rhsMax =  -1.67835103720709E+03  7.34247197277033E+02
(PID.TID 0000.0001)                    cg2d_init_res =    1.44451692311012E+02
(PID.TID 0000.0001)                       cg2d_iters =   112
(PID.TID 0000.0001)                         cg2d_res =    3.92806752122562E-12
(PID.TID 0000.0001) // =======================================================
(PID.TID 0000.0001) // Begin MONITOR dynamic field statistics
(PID.TID 0000.0001) // =======================================================
(PID.TID 0000.0001) %MON time_tsnumber                =                 25924
(PID.TID 0000.0001) %MON time_secondsf                =   7.7772000000000E+06
(PID.TID 0000.0001) %MON time_secondsi                =               7777200
(PID.TID 0000.0001) %MON dynstat_eta_max              =   2.8879434393289E+03
(PID.TID 0000.0001) %MON dynstat_eta_min              =  -6.8452016270408E+03
(PID.TID 0000.0001) %MON dynstat_eta_mean             =  -8.2328885296034E+02
(PID.TID 0000.0001) %MON dynstat_eta_sd               =   2.2026297537092E+03
(PID.TID 0000.0001) %MON dynstat_uvel_max             =   7.8969270387171E+01
(PID.TID 0000.0001) %MON dynstat_uvel_min             =  -4.4061572239701E+01
(PID.TID 0000.0001) %MON dynstat_uvel_mean            =   7.9146641283487E+00
(PID.TID 0000.0001) %MON dynstat_uvel_sd              =   1.5738731370955E+01
(PID.TID 0000.0001) %MON dynstat_vvel_max             =   4.0132863303830E+01
(PID.TID 0000.0001) %MON dynstat_vvel_min             =  -3.1484286979679E+01
(PID.TID 0000.0001) %MON dynstat_vvel_mean            =  -2.0265542570412E-02
(PID.TID 0000.0001) %MON dynstat_vvel_sd              =   6.6657598009357E+00
(PID.TID 0000.0001) %MON dynstat_wvel_max             =   2.5163602005676E+00
(PID.TID 0000.0001) %MON dynstat_wvel_min             =  -1.9370280594888E+00
(PID.TID 0000.0001) %MON dynstat_wvel_mean            =   6.5299424547550E-04
(PID.TID 0000.0001) %MON dynstat_wvel_sd              =   8.0596375314798E-02
(PID.TID 0000.0001) %MON dynstat_theta_max            =   4.7785629863452E+02
(PID.TID 0000.0001) %MON dynstat_theta_min            =   2.4206416717616E+02
(PID.TID 0000.0001) %MON dynstat_theta_mean           =   3.3416251559429E+02
(PID.TID 0000.0001) %MON dynstat_theta_sd             =   6.2226266581893E+01
(PID.TID 0000.0001) %MON dynstat_salt_max             =   1.6186776787817E+01
(PID.TID 0000.0001) %MON dynstat_salt_min             =  -1.3492328766268E-01
(PID.TID 0000.0001) %MON dynstat_salt_mean            =   2.1462020822665E+00
(PID.TID 0000.0001) %MON dynstat_salt_sd              =   3.4949075572960E+00
(PID.TID 0000.0001) %MON advcfl_uvel_max              =   1.6921508979427E-01
(PID.TID 0000.0001) %MON advcfl_vvel_max              =   3.8504551536743E-02
(PID.TID 0000.0001) %MON advcfl_wvel_max              =   6.4868459022173E-02
(PID.TID 0000.0001) %MON advcfl_W_hf_max              =   6.5975520857393E-02
(PID.TID 0000.0001) %MON ke_max                       =   3.1579891819158E+03
(PID.TID 0000.0001) %MON ke_mean                      =   1.7583103197787E+02
(PID.TID 0000.0001) // =======================================================
(PID.TID 0000.0001) // End MONITOR dynamic field statistics
(PID.TID 0000.0001) // =======================================================
 cg2d: Sum(rhs),rhsMax =  -1.67835103720677E+03  7.43438508869736E+02
(PID.TID 0000.0001)                    cg2d_init_res =    9.24510966308077E+01
(PID.TID 0000.0001)                       cg2d_iters =   112
(PID.TID 0000.0001)                         cg2d_res =    3.03840990208927E-12
(PID.TID 0000.0001) // =======================================================
(PID.TID 0000.0001) // Begin MONITOR dynamic field statistics
(PID.TID 0000.0001) // =======================================================
(PID.TID 0000.0001) %MON time_tsnumber                =                 25925
(PID.TID 0000.0001) %MON time_secondsf                =   7.7775000000000E+06
(PID.TID 0000.0001) %MON time_secondsi                =               7777500
(PID.TID 0000.0001) %MON dynstat_eta_max              =   2.8898014151917E+03
(PID.TID 0000.0001) %MON dynstat_eta_min              =  -6.8427729582498E+03
(PID.TID 0000.0001) %MON dynstat_eta_mean             =  -8.2348922557307E+02
(PID.TID 0000.0001) %MON dynstat_eta_sd               =   2.2032434336634E+03
(PID.TID 0000.0001) %MON dynstat_uvel_max             =   7.8948044978895E+01
(PID.TID 0000.0001) %MON dynstat_uvel_min             =  -4.4073803672604E+01
(PID.TID 0000.0001) %MON dynstat_uvel_mean            =   7.9150407713532E+00
(PID.TID 0000.0001) %MON dynstat_uvel_sd              =   1.5738964166502E+01
(PID.TID 0000.0001) %MON dynstat_vvel_max             =   4.0102417249763E+01
(PID.TID 0000.0001) %MON dynstat_vvel_min             =  -3.1507688544966E+01
(PID.TID 0000.0001) %MON dynstat_vvel_mean            =  -1.9800045118367E-02
(PID.TID 0000.0001) %MON dynstat_vvel_sd              =   6.6641567833310E+00
(PID.TID 0000.0001) %MON dynstat_wvel_max             =   2.2705712976803E+00
(PID.TID 0000.0001) %MON dynstat_wvel_min             =  -1.9997575383918E+00
(PID.TID 0000.0001) %MON dynstat_wvel_mean            =   5.3376343520500E-04
(PID.TID 0000.0001) %MON dynstat_wvel_sd              =   7.8956603720373E-02
(PID.TID 0000.0001) %MON dynstat_theta_max            =   4.7785966674939E+02
(PID.TID 0000.0001) %MON dynstat_theta_min            =   2.4206988133192E+02
(PID.TID 0000.0001) %MON dynstat_theta_mean           =   3.3416292884168E+02
(PID.TID 0000.0001) %MON dynstat_theta_sd             =   6.2225807478383E+01
(PID.TID 0000.0001) %MON dynstat_salt_max             =   1.6170499757527E+01
(PID.TID 0000.0001) %MON dynstat_salt_min             =  -1.3507610450320E-01
(PID.TID 0000.0001) %MON dynstat_salt_mean            =   2.1467245031939E+00
(PID.TID 0000.0001) %MON dynstat_salt_sd              =   3.4952479403360E+00
(PID.TID 0000.0001) %MON advcfl_uvel_max              =   1.6822513238845E-01
(PID.TID 0000.0001) %MON advcfl_vvel_max              =   3.8475340771266E-02
(PID.TID 0000.0001) %MON advcfl_wvel_max              =   6.5285145067983E-02
(PID.TID 0000.0001) %MON advcfl_W_hf_max              =   6.6531976067485E-02
(PID.TID 0000.0001) %MON ke_max                       =   3.1563342295763E+03
(PID.TID 0000.0001) %MON ke_mean                      =   1.7582720080863E+02
(PID.TID 0000.0001) // =======================================================
(PID.TID 0000.0001) // End MONITOR dynamic field statistics
(PID.TID 0000.0001) // =======================================================
 cg2d: Sum(rhs),rhsMax =  -1.67835103720563E+03  7.53963915781282E+02
(PID.TID 0000.0001)                    cg2d_init_res =    6.50750665149623E+01
(PID.TID 0000.0001)                       cg2d_iters =   111
(PID.TID 0000.0001)                         cg2d_res =    3.69068985087951E-12
(PID.TID 0000.0001) // =======================================================
(PID.TID 0000.0001) // Begin MONITOR dynamic field statistics
(PID.TID 0000.0001) // =======================================================
(PID.TID 0000.0001) %MON time_tsnumber                =                 25926
(PID.TID 0000.0001) %MON time_secondsf                =   7.7778000000000E+06
(PID.TID 0000.0001) %MON time_secondsi                =               7777800
(PID.TID 0000.0001) %MON dynstat_eta_max              =   2.8889917737754E+03
(PID.TID 0000.0001) %MON dynstat_eta_min              =  -6.8401673394380E+03
(PID.TID 0000.0001) %MON dynstat_eta_mean             =  -8.2367528933312E+02
(PID.TID 0000.0001) %MON dynstat_eta_sd               =   2.2036862801002E+03
(PID.TID 0000.0001) %MON dynstat_uvel_max             =   7.8927028606695E+01
(PID.TID 0000.0001) %MON dynstat_uvel_min             =  -4.4085221558585E+01
(PID.TID 0000.0001) %MON dynstat_uvel_mean            =   7.9154151913566E+00
(PID.TID 0000.0001) %MON dynstat_uvel_sd              =   1.5739255590416E+01
(PID.TID 0000.0001) %MON dynstat_vvel_max             =   4.0067174560386E+01
(PID.TID 0000.0001) %MON dynstat_vvel_min             =  -3.1529031293998E+01
(PID.TID 0000.0001) %MON dynstat_vvel_mean            =  -1.9368262986054E-02
(PID.TID 0000.0001) %MON dynstat_vvel_sd              =   6.6625593013783E+00
(PID.TID 0000.0001) %MON dynstat_wvel_max             =   2.0801254275774E+00
(PID.TID 0000.0001) %MON dynstat_wvel_min             =  -2.0369200652154E+00
(PID.TID 0000.0001) %MON dynstat_wvel_mean            =   4.5420796684027E-04
(PID.TID 0000.0001) %MON dynstat_wvel_sd              =   7.8263649466885E-02
(PID.TID 0000.0001) %MON dynstat_theta_max            =   4.7786270646676E+02
(PID.TID 0000.0001) %MON dynstat_theta_min            =   2.4207494430992E+02
(PID.TID 0000.0001) %MON dynstat_theta_mean           =   3.3416332877287E+02
(PID.TID 0000.0001) %MON dynstat_theta_sd             =   6.2225394881409E+01
(PID.TID 0000.0001) %MON dynstat_salt_max             =   1.6154986502716E+01
(PID.TID 0000.0001) %MON dynstat_salt_min             =  -1.3526302555536E-01
(PID.TID 0000.0001) %MON dynstat_salt_mean            =   2.1465813814104E+00
(PID.TID 0000.0001) %MON dynstat_salt_sd              =   3.4952610496780E+00
(PID.TID 0000.0001) %MON advcfl_uvel_max              =   1.6776573298467E-01
(PID.TID 0000.0001) %MON advcfl_vvel_max              =   3.8441527984495E-02
(PID.TID 0000.0001) %MON advcfl_wvel_max              =   6.6217276651831E-02
(PID.TID 0000.0001) %MON advcfl_W_hf_max              =   6.6572599637696E-02
(PID.TID 0000.0001) %MON ke_max                       =   3.1546974615145E+03
(PID.TID 0000.0001) %MON ke_mean                      =   1.7582430840035E+02
(PID.TID 0000.0001) // =======================================================
(PID.TID 0000.0001) // End MONITOR dynamic field statistics
(PID.TID 0000.0001) // =======================================================
 cg2d: Sum(rhs),rhsMax =  -1.67835103720558E+03  7.61731929513663E+02
(PID.TID 0000.0001)                    cg2d_init_res =    5.15149063607680E+01
(PID.TID 0000.0001)                       cg2d_iters =   107
(PID.TID 0000.0001)                         cg2d_res =    3.29847470412486E-12
(PID.TID 0000.0001) // =======================================================
(PID.TID 0000.0001) // Begin MONITOR dynamic field statistics
(PID.TID 0000.0001) // =======================================================
(PID.TID 0000.0001) %MON time_tsnumber                =                 25927
(PID.TID 0000.0001) %MON time_secondsf                =   7.7781000000000E+06
(PID.TID 0000.0001) %MON time_secondsi                =               7778100
(PID.TID 0000.0001) %MON dynstat_eta_max              =   2.8873196643557E+03
(PID.TID 0000.0001) %MON dynstat_eta_min              =  -6.8373721344576E+03
(PID.TID 0000.0001) %MON dynstat_eta_mean             =  -8.2384847926813E+02
(PID.TID 0000.0001) %MON dynstat_eta_sd               =   2.2040146503965E+03
(PID.TID 0000.0001) %MON dynstat_uvel_max             =   7.8906144292346E+01
(PID.TID 0000.0001) %MON dynstat_uvel_min             =  -4.4104036686806E+01
(PID.TID 0000.0001) %MON dynstat_uvel_mean            =   7.9157882246754E+00
(PID.TID 0000.0001) %MON dynstat_uvel_sd              =   1.5739592324071E+01
(PID.TID 0000.0001) %MON dynstat_vvel_max             =   4.0027659644446E+01
(PID.TID 0000.0001) %MON dynstat_vvel_min             =  -3.1548116948400E+01
(PID.TID 0000.0001) %MON dynstat_vvel_mean            =  -1.8973331131407E-02
(PID.TID 0000.0001) %MON dynstat_vvel_sd              =   6.6609613972875E+00
(PID.TID 0000.0001) %MON dynstat_wvel_max             =   1.9457298856671E+00
(PID.TID 0000.0001) %MON dynstat_wvel_min             =  -2.0764496569486E+00
(PID.TID 0000.0001) %MON dynstat_wvel_mean            =   4.0138305341189E-04
(PID.TID 0000.0001) %MON dynstat_wvel_sd              =   7.8103386840434E-02
(PID.TID 0000.0001) %MON dynstat_theta_max            =   4.7786554161738E+02
(PID.TID 0000.0001) %MON dynstat_theta_min            =   2.4207974774764E+02
(PID.TID 0000.0001) %MON dynstat_theta_mean           =   3.3416374955895E+02
(PID.TID 0000.0001) %MON dynstat_theta_sd             =   6.2225004607364E+01
(PID.TID 0000.0001) %MON dynstat_salt_max             =   1.6139782075175E+01
(PID.TID 0000.0001) %MON dynstat_salt_min             =  -1.3549048443596E-01
(PID.TID 0000.0001) %MON dynstat_salt_mean            =   2.1470951940353E+00
(PID.TID 0000.0001) %MON dynstat_salt_sd              =   3.4955894499805E+00
(PID.TID 0000.0001) %MON advcfl_uvel_max              =   1.6781683067404E-01
(PID.TID 0000.0001) %MON advcfl_vvel_max              =   3.8403616308326E-02
(PID.TID 0000.0001) %MON advcfl_wvel_max              =   6.7586542967615E-02
(PID.TID 0000.0001) %MON advcfl_W_hf_max              =   6.6345933507785E-02
(PID.TID 0000.0001) %MON ke_max                       =   3.1530753247523E+03
(PID.TID 0000.0001) %MON ke_mean                      =   1.7582211439672E+02
(PID.TID 0000.0001) // =======================================================
(PID.TID 0000.0001) // End MONITOR dynamic field statistics
(PID.TID 0000.0001) // =======================================================
 cg2d: Sum(rhs),rhsMax =  -1.67835103720806E+03  7.65132030820817E+02
(PID.TID 0000.0001)                    cg2d_init_res =    4.59909411822789E+01
(PID.TID 0000.0001)                       cg2d_iters =   111
(PID.TID 0000.0001)                         cg2d_res =    3.31727252151472E-12
(PID.TID 0000.0001) // =======================================================
(PID.TID 0000.0001) // Begin MONITOR dynamic field statistics
(PID.TID 0000.0001) // =======================================================
(PID.TID 0000.0001) %MON time_tsnumber                =                 25928
(PID.TID 0000.0001) %MON time_secondsf                =   7.7784000000000E+06
(PID.TID 0000.0001) %MON time_secondsi                =               7778400
(PID.TID 0000.0001) %MON dynstat_eta_max              =   2.8857662729347E+03
(PID.TID 0000.0001) %MON dynstat_eta_min              =  -6.8343301852750E+03
(PID.TID 0000.0001) %MON dynstat_eta_mean             =  -8.2401267140966E+02
(PID.TID 0000.0001) %MON dynstat_eta_sd               =   2.2042724027299E+03
(PID.TID 0000.0001) %MON dynstat_uvel_max             =   7.8885332871258E+01
(PID.TID 0000.0001) %MON dynstat_uvel_min             =  -4.4137273890355E+01
(PID.TID 0000.0001) %MON dynstat_uvel_mean            =   7.9161598702260E+00
(PID.TID 0000.0001) %MON dynstat_uvel_sd              =   1.5739961597720E+01
(PID.TID 0000.0001) %MON dynstat_vvel_max             =   3.9984105105869E+01
(PID.TID 0000.0001) %MON dynstat_vvel_min             =  -3.1564828488516E+01
(PID.TID 0000.0001) %MON dynstat_vvel_mean            =  -1.8622419919221E-02
(PID.TID 0000.0001) %MON dynstat_vvel_sd              =   6.6593611402510E+00
(PID.TID 0000.0001) %MON dynstat_wvel_max             =   1.8390918191500E+00
(PID.TID 0000.0001) %MON dynstat_wvel_min             =  -2.1214767356102E+00
(PID.TID 0000.0001) %MON dynstat_wvel_mean            =   3.6403538791079E-04
(PID.TID 0000.0001) %MON dynstat_wvel_sd              =   7.8167170258290E-02
(PID.TID 0000.0001) %MON dynstat_theta_max            =   4.7786827445652E+02
(PID.TID 0000.0001) %MON dynstat_theta_min            =   2.4208463585259E+02
(PID.TID 0000.0001) %MON dynstat_theta_mean           =   3.3416416534892E+02
(PID.TID 0000.0001) %MON dynstat_theta_sd             =   6.2224642076823E+01
(PID.TID 0000.0001) %MON dynstat_salt_max             =   1.6124793425327E+01
(PID.TID 0000.0001) %MON dynstat_salt_min             =  -1.3575380108430E-01
(PID.TID 0000.0001) %MON dynstat_salt_mean            =   2.1472735935934E+00
(PID.TID 0000.0001) %MON dynstat_salt_sd              =   3.4957503997594E+00
(PID.TID 0000.0001) %MON advcfl_uvel_max              =   1.6821878861024E-01
(PID.TID 0000.0001) %MON advcfl_vvel_max              =   3.8361828909242E-02
(PID.TID 0000.0001) %MON advcfl_wvel_max              =   6.9094904502513E-02
(PID.TID 0000.0001) %MON advcfl_W_hf_max              =   6.6017025613414E-02
(PID.TID 0000.0001) %MON ke_max                       =   3.1514639911269E+03
(PID.TID 0000.0001) %MON ke_mean                      =   1.7582040670200E+02
(PID.TID 0000.0001) // =======================================================
(PID.TID 0000.0001) // End MONITOR dynamic field statistics
(PID.TID 0000.0001) // =======================================================
 cg2d: Sum(rhs),rhsMax =  -1.67835103720604E+03  7.65702105864008E+02
(PID.TID 0000.0001)                    cg2d_init_res =    4.31794992884820E+01
(PID.TID 0000.0001)                       cg2d_iters =   111
(PID.TID 0000.0001)                         cg2d_res =    2.92037365205934E-12
(PID.TID 0000.0001) // =======================================================
(PID.TID 0000.0001) // Begin MONITOR dynamic field statistics
(PID.TID 0000.0001) // =======================================================
(PID.TID 0000.0001) %MON time_tsnumber                =                 25929
(PID.TID 0000.0001) %MON time_secondsf                =   7.7787000000000E+06
(PID.TID 0000.0001) %MON time_secondsi                =               7778700
(PID.TID 0000.0001) %MON dynstat_eta_max              =   2.8846682763533E+03
(PID.TID 0000.0001) %MON dynstat_eta_min              =  -6.8309644771145E+03
(PID.TID 0000.0001) %MON dynstat_eta_mean             =  -8.2417289553178E+02
(PID.TID 0000.0001) %MON dynstat_eta_sd               =   2.2044940428878E+03
(PID.TID 0000.0001) %MON dynstat_uvel_max             =   7.8864569991504E+01
(PID.TID 0000.0001) %MON dynstat_uvel_min             =  -4.4168688741695E+01
(PID.TID 0000.0001) %MON dynstat_uvel_mean            =   7.9165293455559E+00
(PID.TID 0000.0001) %MON dynstat_uvel_sd              =   1.5740350605606E+01
(PID.TID 0000.0001) %MON dynstat_vvel_max             =   3.9936433523528E+01
(PID.TID 0000.0001) %MON dynstat_vvel_min             =  -3.1579085493529E+01
(PID.TID 0000.0001) %MON dynstat_vvel_mean            =  -1.8323786214512E-02
(PID.TID 0000.0001) %MON dynstat_vvel_sd              =   6.6577609528430E+00
(PID.TID 0000.0001) %MON dynstat_wvel_max             =   1.7534733813665E+00
(PID.TID 0000.0001) %MON dynstat_wvel_min             =  -2.1702891729290E+00
(PID.TID 0000.0001) %MON dynstat_wvel_mean            =   3.3324165777840E-04
(PID.TID 0000.0001) %MON dynstat_wvel_sd              =   7.8308569643737E-02
(PID.TID 0000.0001) %MON dynstat_theta_max            =   4.7787095580965E+02
(PID.TID 0000.0001) %MON dynstat_theta_min            =   2.4208983644174E+02
(PID.TID 0000.0001) %MON dynstat_theta_mean           =   3.3416459439701E+02
(PID.TID 0000.0001) %MON dynstat_theta_sd             =   6.2224290248768E+01
(PID.TID 0000.0001) %MON dynstat_salt_max             =   1.6109973838691E+01
(PID.TID 0000.0001) %MON dynstat_salt_min             =  -1.3604346461436E-01
(PID.TID 0000.0001) %MON dynstat_salt_mean            =   2.1474447539374E+00
(PID.TID 0000.0001) %MON dynstat_salt_sd              =   3.4958979675703E+00
(PID.TID 0000.0001) %MON advcfl_uvel_max              =   1.6877336707901E-01
(PID.TID 0000.0001) %MON advcfl_vvel_max              =   3.8316091507323E-02
(PID.TID 0000.0001) %MON advcfl_wvel_max              =   7.0469955736781E-02
(PID.TID 0000.0001) %MON advcfl_W_hf_max              =   6.5670507394611E-02
(PID.TID 0000.0001) %MON ke_max                       =   3.1498614829947E+03
(PID.TID 0000.0001) %MON ke_mean                      =   1.7581899480130E+02
(PID.TID 0000.0001) // =======================================================
(PID.TID 0000.0001) // End MONITOR dynamic field statistics
(PID.TID 0000.0001) // =======================================================
 cg2d: Sum(rhs),rhsMax =  -1.67835103720609E+03  7.64595338256090E+02
(PID.TID 0000.0001)                    cg2d_init_res =    4.11219630110611E+01
(PID.TID 0000.0001)                       cg2d_iters =   111
(PID.TID 0000.0001)                         cg2d_res =    2.40081438219264E-12
(PID.TID 0000.0001) // =======================================================
(PID.TID 0000.0001) // Begin MONITOR dynamic field statistics
(PID.TID 0000.0001) // =======================================================
(PID.TID 0000.0001) %MON time_tsnumber                =                 25930
(PID.TID 0000.0001) %MON time_secondsf                =   7.7790000000000E+06
(PID.TID 0000.0001) %MON time_secondsi                =               7779000
(PID.TID 0000.0001) %MON dynstat_eta_max              =   2.8839702084153E+03
(PID.TID 0000.0001) %MON dynstat_eta_min              =  -6.8272538016604E+03
(PID.TID 0000.0001) %MON dynstat_eta_mean             =  -8.2433424030618E+02
(PID.TID 0000.0001) %MON dynstat_eta_sd               =   2.2047044670663E+03
(PID.TID 0000.0001) %MON dynstat_uvel_max             =   7.8843852500882E+01
(PID.TID 0000.0001) %MON dynstat_uvel_min             =  -4.4197976435098E+01
(PID.TID 0000.0001) %MON dynstat_uvel_mean            =   7.9168950866697E+00
(PID.TID 0000.0001) %MON dynstat_uvel_sd              =   1.5740748587720E+01
(PID.TID 0000.0001) %MON dynstat_vvel_max             =   3.9884402213944E+01
(PID.TID 0000.0001) %MON dynstat_vvel_min             =  -3.1590831468848E+01
(PID.TID 0000.0001) %MON dynstat_vvel_mean            =  -1.8083873893386E-02
(PID.TID 0000.0001) %MON dynstat_vvel_sd              =   6.6561632319875E+00
(PID.TID 0000.0001) %MON dynstat_wvel_max             =   1.6815925302074E+00
(PID.TID 0000.0001) %MON dynstat_wvel_min             =  -2.2192419384875E+00
(PID.TID 0000.0001) %MON dynstat_wvel_mean            =   3.0328610375812E-04
(PID.TID 0000.0001) %MON dynstat_wvel_sd              =   7.8467858828322E-02
(PID.TID 0000.0001) %MON dynstat_theta_max            =   4.7787359970981E+02
(PID.TID 0000.0001) %MON dynstat_theta_min            =   2.4209543038686E+02
(PID.TID 0000.0001) %MON dynstat_theta_mean           =   3.3416499922007E+02
(PID.TID 0000.0001) %MON dynstat_theta_sd             =   6.2223962480803E+01
(PID.TID 0000.0001) %MON dynstat_salt_max             =   1.6095312572497E+01
(PID.TID 0000.0001) %MON dynstat_salt_min             =  -1.3635070488797E-01
(PID.TID 0000.0001) %MON dynstat_salt_mean            =   2.1476192825390E+00
(PID.TID 0000.0001) %MON dynstat_salt_sd              =   3.4960572577619E+00
(PID.TID 0000.0001) %MON advcfl_uvel_max              =   1.6930711164830E-01
(PID.TID 0000.0001) %MON advcfl_vvel_max              =   3.8266171265494E-02
(PID.TID 0000.0001) %MON advcfl_wvel_max              =   7.1599830798709E-02
(PID.TID 0000.0001) %MON advcfl_W_hf_max              =   6.5347997689245E-02
(PID.TID 0000.0001) %MON ke_max                       =   3.1482672852737E+03
(PID.TID 0000.0001) %MON ke_mean                      =   1.7581771378801E+02
(PID.TID 0000.0001) // =======================================================
(PID.TID 0000.0001) // End MONITOR dynamic field statistics
(PID.TID 0000.0001) // =======================================================
(PID.TID 0000.0001)  Seconds in section "ALL                [THE_MODEL_MAIN]":
(PID.TID 0000.0001)          User time:   24.79999969527125
(PID.TID 0000.0001)        System time:  0.5399999618530273
(PID.TID 0000.0001)    Wall clock time:   25.83607101440430
(PID.TID 0000.0001)         No. starts:           1
(PID.TID 0000.0001)          No. stops:           1
(PID.TID 0000.0001)  Seconds in section "INITIALISE_FIXED   [THE_MODEL_MAIN]":
(PID.TID 0000.0001)          User time:  0.2099999897181988
(PID.TID 0000.0001)        System time:  7.0000000298023224E-002
(PID.TID 0000.0001)    Wall clock time:  0.4591020345687866
(PID.TID 0000.0001)         No. starts:           1
(PID.TID 0000.0001)          No. stops:           1
(PID.TID 0000.0001)  Seconds in section "THE_MAIN_LOOP      [THE_MODEL_MAIN]":
(PID.TID 0000.0001)          User time:   24.55999901890755
(PID.TID 0000.0001)        System time:  0.4099999889731407
(PID.TID 0000.0001)    Wall clock time:   25.27263200283051
(PID.TID 0000.0001)         No. starts:           1
(PID.TID 0000.0001)          No. stops:           1
(PID.TID 0000.0001)  Seconds in section "INITIALISE_VARIA    [THE_MAIN_LOOP]":
(PID.TID 0000.0001)          User time:  0.1200000047683716
(PID.TID 0000.0001)        System time:  0.1499999985098839
(PID.TID 0000.0001)    Wall clock time:  0.3303580284118652
(PID.TID 0000.0001)         No. starts:           1
(PID.TID 0000.0001)          No. stops:           1
(PID.TID 0000.0001)  Seconds in section "WRITE_STATE         [THE_MAIN_LOOP]":
(PID.TID 0000.0001)          User time:  3.0000001192092896E-002
(PID.TID 0000.0001)        System time:  1.9999995827674866E-002
(PID.TID 0000.0001)    Wall clock time:  0.1029449701309204
(PID.TID 0000.0001)         No. starts:           1
(PID.TID 0000.0001)          No. stops:           1
(PID.TID 0000.0001)  Seconds in section "MONITOR             [THE_MAIN_LOOP]":
(PID.TID 0000.0001)          User time:  6.0000002384185791E-002
(PID.TID 0000.0001)        System time:  0.0000000000000000E+000
(PID.TID 0000.0001)    Wall clock time:  5.4575920104980469E-002
(PID.TID 0000.0001)         No. starts:           1
(PID.TID 0000.0001)          No. stops:           1
(PID.TID 0000.0001)  Seconds in section "MAIN LOOP           [THE_MAIN_LOOP]":
(PID.TID 0000.0001)          User time:   24.34999901056290
(PID.TID 0000.0001)        System time:  0.2399999946355820
(PID.TID 0000.0001)    Wall clock time:   24.78399503231049
(PID.TID 0000.0001)         No. starts:           1
(PID.TID 0000.0001)          No. stops:           1
(PID.TID 0000.0001)  Seconds in section "FORWARD_STEP        [THE_MAIN_LOOP]":
(PID.TID 0000.0001)          User time:   24.34999901056290
(PID.TID 0000.0001)        System time:  0.2399999946355820
(PID.TID 0000.0001)    Wall clock time:   24.78237211704254
(PID.TID 0000.0001)         No. starts:          10
(PID.TID 0000.0001)          No. stops:          10
(PID.TID 0000.0001)  Seconds in section "EXTERNAL_FIELDS_LOAD[THE_MAIN_LOOP]":
(PID.TID 0000.0001)          User time:  0.0000000000000000E+000
(PID.TID 0000.0001)        System time:  0.0000000000000000E+000
(PID.TID 0000.0001)    Wall clock time:  3.3260822296142578E-002
(PID.TID 0000.0001)         No. starts:          10
(PID.TID 0000.0001)          No. stops:          10
(PID.TID 0000.0001)  Seconds in section "THERMODYNAMICS      [THE_MAIN_LOOP]":
(PID.TID 0000.0001)          User time:   8.269999444484711
(PID.TID 0000.0001)        System time:  0.1700000017881393
(PID.TID 0000.0001)    Wall clock time:   8.472003221511841
(PID.TID 0000.0001)         No. starts:          10
(PID.TID 0000.0001)          No. stops:          10
(PID.TID 0000.0001)  Seconds in section "AIM_DO_ATMOS_PHYS      [DYNAMICS]":
(PID.TID 0000.0001)          User time:   4.959998995065689
(PID.TID 0000.0001)        System time:  0.1400000154972076
(PID.TID 0000.0001)    Wall clock time:   5.112266898155212
(PID.TID 0000.0001)         No. starts:          10
(PID.TID 0000.0001)          No. stops:          10
(PID.TID 0000.0001)  Seconds in section "DYNAMICS            [THE_MAIN_LOOP]":
(PID.TID 0000.0001)          User time:   4.379999756813049
(PID.TID 0000.0001)        System time:  3.9999991655349731E-002
(PID.TID 0000.0001)    Wall clock time:   4.445449948310852
(PID.TID 0000.0001)         No. starts:          10
(PID.TID 0000.0001)          No. stops:          10
(PID.TID 0000.0001)  Seconds in section "SOLVE_FOR_PRESSURE  [THE_MAIN_LOOP]":
(PID.TID 0000.0001)          User time:   6.570001125335693
(PID.TID 0000.0001)        System time:  0.0000000000000000E+000
(PID.TID 0000.0001)    Wall clock time:   6.607936263084412
(PID.TID 0000.0001)         No. starts:          10
(PID.TID 0000.0001)          No. stops:          10
(PID.TID 0000.0001)  Seconds in section "THE_CORRECTION_STEP [THE_MAIN_LOOP]":
(PID.TID 0000.0001)          User time:   4.449997663497925
(PID.TID 0000.0001)        System time:  2.0000010728836060E-002
(PID.TID 0000.0001)    Wall clock time:   4.470096826553345
(PID.TID 0000.0001)         No. starts:          10
(PID.TID 0000.0001)          No. stops:          10
(PID.TID 0000.0001)  Seconds in section "BLOCKING_EXCHANGES  [THE_MAIN_LOOP]":
(PID.TID 0000.0001)          User time:  4.0000677108764648E-002
(PID.TID 0000.0001)        System time:  0.0000000000000000E+000
(PID.TID 0000.0001)    Wall clock time:  5.4046392440795898E-002
(PID.TID 0000.0001)         No. starts:          10
(PID.TID 0000.0001)          No. stops:          10
(PID.TID 0000.0001)  Seconds in section "DO_THE_MODEL_IO     [THE_MAIN_LOOP]":
(PID.TID 0000.0001)          User time:  2.9998779296875000E-002
(PID.TID 0000.0001)        System time:  9.9999904632568359E-003
(PID.TID 0000.0001)    Wall clock time:  9.9760890007019043E-002
(PID.TID 0000.0001)         No. starts:          10
(PID.TID 0000.0001)          No. stops:          10
(PID.TID 0000.0001)  Seconds in section "WRITE_CHECKPOINT    [THE_MAIN_LOOP]":
(PID.TID 0000.0001)          User time:  0.0000000000000000E+000
(PID.TID 0000.0001)        System time:  0.0000000000000000E+000
(PID.TID 0000.0001)    Wall clock time:  1.5047788619995117E-003
(PID.TID 0000.0001)         No. starts:          10
(PID.TID 0000.0001)          No. stops:          10
(PID.TID 0000.0001)  Seconds in section "WRITE_CHECKPOINT   [THE_MODEL_MAIN]":
(PID.TID 0000.0001)          User time:  3.0000686645507813E-002
(PID.TID 0000.0001)        System time:  5.9999972581863403E-002
(PID.TID 0000.0001)    Wall clock time:  0.1032559871673584
(PID.TID 0000.0001)         No. starts:           1
(PID.TID 0000.0001)          No. stops:           1
(PID.TID 0000.0001) // ======================================================
(PID.TID 0000.0001) // Tile <-> Tile communication statistics
(PID.TID 0000.0001) // ======================================================
(PID.TID 0000.0001) // o Tile number: 000001
(PID.TID 0000.0001) //         No. X exchanges =              0
(PID.TID 0000.0001) //            Max. X spins =              0
(PID.TID 0000.0001) //            Min. X spins =     1000000000
(PID.TID 0000.0001) //          Total. X spins =              0
(PID.TID 0000.0001) //            Avg. X spins =       0.00E+00
(PID.TID 0000.0001) //         No. Y exchanges =              0
(PID.TID 0000.0001) //            Max. Y spins =              0
(PID.TID 0000.0001) //            Min. Y spins =     1000000000
(PID.TID 0000.0001) //          Total. Y spins =              0
(PID.TID 0000.0001) //            Avg. Y spins =       0.00E+00
(PID.TID 0000.0001) // o Thread number: 000001
(PID.TID 0000.0001) //            No. barriers =          16045
(PID.TID 0000.0001) //      Max. barrier spins =              1
(PID.TID 0000.0001) //      Min. barrier spins =              1
(PID.TID 0000.0001) //     Total barrier spins =          16045
(PID.TID 0000.0001) //      Avg. barrier spins =       1.00E+00
