(PID.TID 0000.0001) 
(PID.TID 0000.0001) // ======================================================
(PID.TID 0000.0001) //                      MITgcm UV
(PID.TID 0000.0001) //                      =========
(PID.TID 0000.0001) // ======================================================
(PID.TID 0000.0001) // execution environment starting up...
(PID.TID 0000.0001) // Run starting Wed Apr  1 14:19:48 1998
(PID.TID 0000.0001) // on melville.lcs.mit.edu
(PID.TID 0000.0001) // account cnh
(PID.TID 0000.0001) // MITgcm UV Release: $Name:  $
(PID.TID 0000.0001) 
(PID.TID 0000.0001) // =======================================================
(PID.TID 0000.0001) // Execution Environment parameter file "eedata"
(PID.TID 0000.0001) // =======================================================
(PID.TID 0000.0001) ># Example "eedata" file
(PID.TID 0000.0001) ># Lines beginning "#" are comments
(PID.TID 0000.0001) ># nTx - No. threads per process in X
(PID.TID 0000.0001) ># nTy - No. threads per process in Y
(PID.TID 0000.0001) > &EEPARMS
(PID.TID 0000.0001) > &
(PID.TID 0000.0001) ># Note: Some systems use & as the
(PID.TID 0000.0001) ># namelist terminator. Other systems
(PID.TID 0000.0001) ># use a / character (as shown here).
(PID.TID 0000.0001) 
(PID.TID 0000.0001) // =======================================================
(PID.TID 0000.0001) // Computational Grid Specification ( see files "SIZE.h" )
(PID.TID 0000.0001) //                                  ( and "eedata"       )
(PID.TID 0000.0001) // =======================================================
(PID.TID 0000.0001)      nPx =    1 ; /* No. processes in X */
(PID.TID 0000.0001)      nPy =    1 ; /* No. processes in Y */
(PID.TID 0000.0001)      nSx =    1 ; /* No. tiles in X per process */
(PID.TID 0000.0001)      nSy =    2 ; /* No. tiles in Y per process */
(PID.TID 0000.0001)      sNx =  128 ; /* Tile size in X */
(PID.TID 0000.0001)      sNy =   32 ; /* Tile size in Y */
(PID.TID 0000.0001)      OLx =    3 ; /* Tile overlap distance in X */
(PID.TID 0000.0001)      OLy =    3 ; /* Tile overlap distance in Y */
(PID.TID 0000.0001)      nTx =    1 ; /* No. threads in X per process */
(PID.TID 0000.0001)      nTy =    1 ; /* No. threads in Y per process */
(PID.TID 0000.0001)       Nr =    5 ; /* No. levels in the vertical   */
(PID.TID 0000.0001)       nX =  128 ; /* Total domain size in X ( = nPx*nSx*sNx ) */
(PID.TID 0000.0001)       nY =   64 ; /* Total domain size in Y ( = nPy*nSy*sNy ) */
(PID.TID 0000.0001)   nTiles =    2 ; /* Total no. tiles per process ( = nSx*nSy ) */
(PID.TID 0000.0001)   nProcs =    1 ; /* Total no. processes ( = nPx*nPy ) */
(PID.TID 0000.0001) nThreads =    1 ; /* Total no. threads per process ( = nTx*nTy ) */
(PID.TID 0000.0001) usingMPI =    F ; /* Flag used to control whether MPI is in use */
(PID.TID 0000.0001)                   /*  note: To execute a program with MPI calls */
(PID.TID 0000.0001)                   /*  it must be launched appropriately e.g     */
(PID.TID 0000.0001)                   /*  "mpirun -np 64 ......"                    */
(PID.TID 0000.0001) useCoupler=   F ; /* Flag used to control communications with */
(PID.TID 0000.0001)                   /*  other model components, through a coupler */
(PID.TID 0000.0001) 
(PID.TID 0000.0001) // ======================================================
(PID.TID 0000.0001) // Mapping of tiles to threads
(PID.TID 0000.0001) // ======================================================
(PID.TID 0000.0001) // -o- Thread   1, tiles (   1:   1,   1:   2)
(PID.TID 0000.0001) 
(PID.TID 0000.0001) // ======================================================
(PID.TID 0000.0001) // Tile <-> Tile connectvity table
(PID.TID 0000.0001) // ======================================================
(PID.TID 0000.0001) // Tile number: 000001 (process no. = 000001)
(PID.TID 0000.0001) //        WEST: Tile = 000001, Process = 000001, Comm = put
(PID.TID 0000.0001) //                bi = 000001, bj = 000001
(PID.TID 0000.0001) //        EAST: Tile = 000001, Process = 000001, Comm = put
(PID.TID 0000.0001) //                bi = 000001, bj = 000001
(PID.TID 0000.0001) //       SOUTH: Tile = 000002, Process = 000001, Comm = put
(PID.TID 0000.0001) //                bi = 000001, bj = 000002
(PID.TID 0000.0001) //       NORTH: Tile = 000002, Process = 000001, Comm = put
(PID.TID 0000.0001) //                bi = 000001, bj = 000002
(PID.TID 0000.0001) // Tile number: 000002 (process no. = 000001)
(PID.TID 0000.0001) //        WEST: Tile = 000002, Process = 000001, Comm = put
(PID.TID 0000.0001) //                bi = 000001, bj = 000002
(PID.TID 0000.0001) //        EAST: Tile = 000002, Process = 000001, Comm = put
(PID.TID 0000.0001) //                bi = 000001, bj = 000002
(PID.TID 0000.0001) //       SOUTH: Tile = 000001, Process = 000001, Comm = put
(PID.TID 0000.0001) //                bi = 000001, bj = 000001
(PID.TID 0000.0001) //       NORTH: Tile = 000001, Process = 000001, Comm = put
(PID.TID 0000.0001) //                bi = 000001, bj = 000001
(PID.TID 0000.0001) 
(PID.TID 0000.0001) // =======================================================
(PID.TID 0000.0001) // Model parameter file "data"
(PID.TID 0000.0001) // =======================================================
(PID.TID 0000.0001) ># ====================
(PID.TID 0000.0001) ># | Model parameters |
(PID.TID 0000.0001) ># ====================
(PID.TID 0000.0001) >#
(PID.TID 0000.0001) ># Continuous equation parameters
(PID.TID 0000.0001) > &PARM01
(PID.TID 0000.0001) > tRef=281.089, 289.321, 307.191, 331.377, 432.413,
(PID.TID 0000.0001) > sRef=5*0.,
(PID.TID 0000.0001) > no_slip_sides=.FALSE.,
(PID.TID 0000.0001) > no_slip_bottom=.FALSE.,
(PID.TID 0000.0001) > buoyancyRelation='ATMOSPHERIC',
(PID.TID 0000.0001) > eosType='IDEALGAS',
(PID.TID 0000.0001) >#atm_Rq=0.6078E-3,
(PID.TID 0000.0001) > Integr_GeoPot=2,
(PID.TID 0000.0001) >#selectFindRoSurf=1,
(PID.TID 0000.0001) > gravity=9.81,
(PID.TID 0000.0001) > rhonil=1.0,
(PID.TID 0000.0001) > rhoConst=1.0,
(PID.TID 0000.0001) > rhoConstFresh=1000.,
(PID.TID 0000.0001) > implicitFreeSurface=.TRUE.,
(PID.TID 0000.0001) > exactConserv=.TRUE.,
(PID.TID 0000.0001) >#uniformLin_PhiSurf=.FALSE.,
(PID.TID 0000.0001) > staggerTimeStep=.TRUE.,
(PID.TID 0000.0001) > readBinaryPrec=64,
(PID.TID 0000.0001) > writeBinaryPrec=64,
(PID.TID 0000.0001) > hFacMin=1.0,
(PID.TID 0000.0001) > saltAdvScheme=3,
(PID.TID 0000.0001) > &
(PID.TID 0000.0001) >
(PID.TID 0000.0001) ># Elliptic solver parameters
(PID.TID 0000.0001) > &PARM02
(PID.TID 0000.0001) > cg2dMaxIters=200,
(PID.TID 0000.0001) >#cg2dTargetResidual=1.E-12,
(PID.TID 0000.0001) > cg2dTargetResWunit=1.E-17,
(PID.TID 0000.0001) > &
(PID.TID 0000.0001) >
(PID.TID 0000.0001) ># Time stepping parameters
(PID.TID 0000.0001) > &PARM03
(PID.TID 0000.0001) > niter0=69120,
(PID.TID 0000.0001) > nTimeSteps=10,
(PID.TID 0000.0001) >#endTime=311040000.,
(PID.TID 0000.0001) > deltaT=450.0,
(PID.TID 0000.0001) > abEps=0.1,
(PID.TID 0000.0001) > forcing_In_AB=.FALSE.,
(PID.TID 0000.0001) > pChkptFreq=2592000.0,
(PID.TID 0000.0001) > chkptFreq=0.0,
(PID.TID 0000.0001) > dumpFreq=2592000.0,
(PID.TID 0000.0001) > taveFreq=2592000.0,
(PID.TID 0000.0001) >#monitorFreq=86400.0,
(PID.TID 0000.0001) > monitorFreq=1.0,
(PID.TID 0000.0001) > &
(PID.TID 0000.0001) >
(PID.TID 0000.0001) ># Gridding parameters
(PID.TID 0000.0001) > &PARM04
(PID.TID 0000.0001) > usingSphericalPolarGrid=.TRUE.,
(PID.TID 0000.0001) > delX=128*2.8125,
(PID.TID 0000.0001) > delY=64*2.8125,
(PID.TID 0000.0001) > delR=100.E2, 250.E2, 300.E2, 200.E2, 150.E2,
(PID.TID 0000.0001) > Ro_SeaLevel=1.E5,
(PID.TID 0000.0001) > groundAtK1=.TRUE.,
(PID.TID 0000.0001) > phiMin=-90.,
(PID.TID 0000.0001) > rSphere=6370.E3,
(PID.TID 0000.0001) > &
(PID.TID 0000.0001) >
(PID.TID 0000.0001) ># Input datasets
(PID.TID 0000.0001) > &PARM05
(PID.TID 0000.0001) > topoFile='topo.filt_55.bin',
(PID.TID 0000.0001) > &
(PID.TID 0000.0001) 
(PID.TID 0000.0001) S/R INI_PARMS ; read PARM01 : OK
(PID.TID 0000.0001) S/R INI_PARMS ; read PARM02 : OK
(PID.TID 0000.0001) S/R INI_PARMS ; read PARM03 : OK
(PID.TID 0000.0001) S/R INI_PARMS ; read PARM04 : OK
(PID.TID 0000.0001) S/R INI_PARMS ; read PARM05 : OK
(PID.TID 0000.0001) %MON XC_max                       =   3.5859375000000E+02
(PID.TID 0000.0001) %MON XC_min                       =   1.4062500000000E+00
(PID.TID 0000.0001) %MON XC_mean                      =   1.8000000000000E+02
(PID.TID 0000.0001) %MON XC_sd                        =   1.0391987692599E+02
(PID.TID 0000.0001) %MON XG_max                       =   3.5718750000000E+02
(PID.TID 0000.0001) %MON XG_min                       =   2.8125000000000E+00
(PID.TID 0000.0001) %MON XG_mean                      =   1.8000000000000E+02
(PID.TID 0000.0001) %MON XG_sd                        =   1.0310795313651E+02
(PID.TID 0000.0001) %MON DXC_max                      =   3.1259246843155E+05
(PID.TID 0000.0001) %MON DXC_min                      =   7.6737143816223E+03
(PID.TID 0000.0001) %MON DXC_mean                     =   1.9908248704234E+05
(PID.TID 0000.0001) %MON DXC_sd                       =   9.6190602240068E+04
(PID.TID 0000.0001) %MON DXF_max                      =   3.1259246843155E+05
(PID.TID 0000.0001) %MON DXF_min                      =   7.6737143816223E+03
(PID.TID 0000.0001) %MON DXF_mean                     =   1.9908248704234E+05
(PID.TID 0000.0001) %MON DXF_sd                       =   9.6190602240068E+04
(PID.TID 0000.0001) %MON DXG_max                      =   3.1268664380261E+05
(PID.TID 0000.0001) %MON DXG_min                      =   1.5342806404640E+04
(PID.TID 0000.0001) %MON DXG_mean                     =   2.0218161485138E+05
(PID.TID 0000.0001) %MON DXG_sd                       =   9.3728538420912E+04
(PID.TID 0000.0001) %MON DXV_max                      =   3.1268664380261E+05
(PID.TID 0000.0001) %MON DXV_min                      =   1.5342806404640E+04
(PID.TID 0000.0001) %MON DXV_mean                     =   2.0218161485138E+05
(PID.TID 0000.0001) %MON DXV_sd                       =   9.3728538420912E+04
(PID.TID 0000.0001) %MON YC_max                       =   8.8593750000000E+01
(PID.TID 0000.0001) %MON YC_min                       =  -8.8593750000000E+01
(PID.TID 0000.0001) %MON YC_mean                      =   0.0000000000000E+00
(PID.TID 0000.0001) %MON YC_sd                        =   5.1955180880375E+01
(PID.TID 0000.0001) %MON YG_max                       =   8.7187500000000E+01
(PID.TID 0000.0001) %MON YG_min                       =  -9.0000000000000E+01
(PID.TID 0000.0001) %MON YG_mean                      =  -1.4285714285714E+00
(PID.TID 0000.0001) %MON YG_sd                        =   5.2365595692639E+01
(PID.TID 0000.0001) %MON DYC_max                      =   3.1268664380261E+05
(PID.TID 0000.0001) %MON DYC_min                      =   3.1268664380261E+05
(PID.TID 0000.0001) %MON DYC_mean                     =   3.1268664380263E+05
(PID.TID 0000.0001) %MON DYC_sd                       =   2.4156179279089E-08
(PID.TID 0000.0001) %MON DYF_max                      =   3.1268664380261E+05
(PID.TID 0000.0001) %MON DYF_min                      =   3.1268664380261E+05
(PID.TID 0000.0001) %MON DYF_mean                     =   3.1268664380263E+05
(PID.TID 0000.0001) %MON DYF_sd                       =   2.4156179279089E-08
(PID.TID 0000.0001) %MON DYG_max                      =   3.1268664380261E+05
(PID.TID 0000.0001) %MON DYG_min                      =   3.1268664380261E+05
(PID.TID 0000.0001) %MON DYG_mean                     =   3.1268664380263E+05
(PID.TID 0000.0001) %MON DYG_sd                       =   2.4156179279089E-08
(PID.TID 0000.0001) %MON DYU_max                      =   3.1268664380261E+05
(PID.TID 0000.0001) %MON DYU_min                      =   3.1268664380261E+05
(PID.TID 0000.0001) %MON DYU_mean                     =   3.1268664380263E+05
(PID.TID 0000.0001) %MON DYU_sd                       =   2.4156179279089E-08
(PID.TID 0000.0001) %MON RA_max                       =   9.7733676797555E+10
(PID.TID 0000.0001) %MON RA_min                       =   2.3992270990190E+09
(PID.TID 0000.0001) %MON RA_mean                      =   6.2244185031957E+10
(PID.TID 0000.0001) %MON RA_sd                        =   3.0074496923945E+10
(PID.TID 0000.0001) %MON RAW_max                      =   9.7733676797555E+10
(PID.TID 0000.0001) %MON RAW_min                      =   2.3992270990190E+09
(PID.TID 0000.0001) %MON RAW_mean                     =   6.2244185031957E+10
(PID.TID 0000.0001) %MON RAW_sd                       =   3.0074496923945E+10
(PID.TID 0000.0001) %MON RAS_max                      =   9.7763121221868E+10
(PID.TID 0000.0001) %MON RAS_min                      =   4.7970089933465E+09
(PID.TID 0000.0001) %MON RAS_mean                     =   6.3213143616158E+10
(PID.TID 0000.0001) %MON RAS_sd                       =   2.9304719741649E+10
(PID.TID 0000.0001) %MON RAZ_max                      =   9.7763121221868E+10
(PID.TID 0000.0001) %MON RAZ_min                      =   4.7970089933465E+09
(PID.TID 0000.0001) %MON RAZ_mean                     =   6.3213143616158E+10
(PID.TID 0000.0001) %MON RAZ_sd                       =   2.9304719741649E+10
(PID.TID 0000.0001)  MDSREADFIELD: opening global file: topo.filt_55.bin
INI_P_GROUND: PhiRef/g [m] at Center (integer) and Interface (half-int.) levels:
  K=  0.5  ;  r=  100000.0  ;  phiRef/g=       0.000
  K=  1.0  ;  r=   95000.0  ;  phiRef/g=     418.526
  K=  1.5  ;  r=   90000.0  ;  phiRef/g=    1219.560
  K=  2.0  ;  r=   77500.0  ;  phiRef/g=    2044.053
  K=  2.5  ;  r=   65000.0  ;  phiRef/g=    3664.142
  K=  3.0  ;  r=   50000.0  ;  phiRef/g=    5384.296
  K=  3.5  ;  r=   35000.0  ;  phiRef/g=    7701.142
  K=  4.0  ;  r=   25000.0  ;  phiRef/g=   10200.400
  K=  4.5  ;  r=   15000.0  ;  phiRef/g=   13521.874
  K=  5.0  ;  r=    7500.0  ;  phiRef/g=   17856.056
  K=  5.5  ;  r=       0.0  ;  phiRef/g=   38969.174
(PID.TID 0000.0001) // =======================================================
(PID.TID 0000.0001) // Field Model R_low (ini_masks_etc) at iteration          1
(PID.TID 0000.0001) // CMIN =          1.000000000000000E+32
(PID.TID 0000.0001) // CMAX =         -1.000000000000000E+32
(PID.TID 0000.0001) // CINT =          0.000000000000000E+00
(PID.TID 0000.0001) // SYMBOLS (CMIN->CMAX): -abcdefghijklmnopqrstuvwxyz+
(PID.TID 0000.0001) //                  0.0: .
(PID.TID 0000.0001) // RANGE I (Lo:Hi:Step):(  -2: 131:   1)
(PID.TID 0000.0001) // RANGE J (Lo:Hi:Step):(  67:  -2:  -1)
(PID.TID 0000.0001) // RANGE K (Lo:Hi:Step):(   1:   1:   1)
(PID.TID 0000.0001) // =======================================================
(PID.TID 0000.0001) // =======================================================
(PID.TID 0000.0001) // END OF FIELD                                          =
(PID.TID 0000.0001) // =======================================================
(PID.TID 0000.0001) 
(PID.TID 0000.0001) // =======================================================
(PID.TID 0000.0001) // Field Model Ro_surf (ini_masks_etc) at iteration          1
(PID.TID 0000.0001) // CMIN =          3.500000000000000E+04
(PID.TID 0000.0001) // CMAX =          1.000000000000000E+05
(PID.TID 0000.0001) // CINT =          2.407407407407407E+03
(PID.TID 0000.0001) // SYMBOLS (CMIN->CMAX): -abcdefghijklmnopqrstuvwxyz+
(PID.TID 0000.0001) //                  0.0: .
(PID.TID 0000.0001) // RANGE I (Lo:Hi:Step):(  -2: 131:   1)
(PID.TID 0000.0001) // RANGE J (Lo:Hi:Step):(  67:  -2:  -1)
(PID.TID 0000.0001) // RANGE K (Lo:Hi:Step):(   1:   1:   1)
(PID.TID 0000.0001) // =======================================================
(PID.TID 0000.0001) K =   1
(PID.TID 0000.0001) //                I=7       I=17      I=27      I=37      I=47      I=57      I=67      I=77      I=87      I=97      I=107     I=117     I=127
(PID.TID 0000.0001) // |--J--|**0123456|890123456|890123456|890123456|890123456|890123456|890123456|890123456|890123456|890123456|890123456|890123456|890123456|8901
(PID.TID 0000.0001) //     67 ......................................................................................................................................
(PID.TID 0000.0001) //     66 ......................................................................................................................................
(PID.TID 0000.0001) //     65 ......................................................................................................................................
(PID.TID 0000.0001) //     64 ++++++++++++++++++++++++++++++++++++++++++++++++++++++++++++++++++++++++++++++++++++++++++++++++++++++++++++++++++++++++++++++++++++++
(PID.TID 0000.0001) //     63 ++++++++++++++++++++++++++++++++++++++++++++++++++++++++++++++++++++++++++++++++++++++++++++++++++++++++++++++++++++++++++++++++++++++
(PID.TID 0000.0001) //     62 ++++++++++++++++++++++++++++++++++wwwwwwwwwwwwwwwwwwwwwwww++++++++++++++++++++++++++++++++++++++++++++++++++++++++++++++++++++++++++++
(PID.TID 0000.0001) //     61 +++++++++++++++++++++++++++++++++wwwwwwwwwwwwwwwlllllllwwwwww++++++++++wwww+++++++++++++++++++++++++++++++++++++++++++++++++++++++++++
(PID.TID 0000.0001) //     60 ++++++++++++++++++++++++++++++++++++wwwwwwwwwwlllllllllllwww+++++++++++wwww+++++++++++++++++++++++++++++++++++++++++++++++++++++++++++
(PID.TID 0000.0001) //     59 +++++++++++++++++++++++++++++++++++wwww+++++++wwllllllllllww+++++++++++++++++++++++++++ww+++++++++++++++ww++++++++++++++++++++++++++++
(PID.TID 0000.0001) //     58 +++++++++++++++++++++++++++++++++++++wwwww+++++wwllllllllww+++++++++++++++++++++++++++++++++++++++++++++ww++++++++++++++++++++++++++++
(PID.TID 0000.0001) //     57 www++++++wwwwwwwwww++wwww+++++++++++++++wwww++++wwlllllwww++++++++++++++wwww++++++++++++++++++++++wwwwwwwww++++wwwwwww+++++++wwwwww+++
(PID.TID 0000.0001) //     56 wwww++++++wwwwwwwwwwwww++wwww+++++++++++++www+++wwllwww++++www+++++++++www++++++++++++++www++++++++wwwwwwwww+++wwwwwwwwwwwwwwwwwwwww++
(PID.TID 0000.0001) //     55 w++++++++++wwwwwwwwwwwwww+++w+++++++++++++ww+++++wllw++++++++++++++++wwww+++++++++++++++w++++++++++wwwwwwww+++++wwwwwwwwwwwwwwwww+++++
(PID.TID 0000.0001) //     54 ++++++++++wwwwwwllwwwwwwwww+www+++++++++ww++++++++ww+++++++++++++++++www+++++++++++++++++++++++++++wwwwwwwwwwwwww++wwwwwwwwww+++++++++
(PID.TID 0000.0001) //     53 +++++++++++w++++++wwwwwwwwwwwww++++++++++++ww++++++++++++++++++++w++++++++++++++++++++++++++++++++++++wwwwwwwwwwwwwww++++++ww+++++++++
(PID.TID 0000.0001) //     52 ++++++++++++++++++++wwwwwwwwww++++++++++wwwww++++++++++++++++++++++++++++++++++++++++++w++++++++++wwwwwwwwwwwwwwwwww+++++++ww+++++++++
(PID.TID 0000.0001) //     51 +++++++++++++++++++++wwwllwwwwww++++++++wwwwww++++++++++++++++++++++++++w++++++++++++++w+++++w++wwlwwwlwwwwwwwwwwwwww+++++++++++++++++
(PID.TID 0000.0001) //     50 ++++++++++++++++++++++wwwwwwwwww++w+++++www++++++++++++++++++++++++++wwwwwww++++++++++++++wwwwwwwlllwllwwwwwwwwwwwwww+++++++++++++++++
(PID.TID 0000.0001) //     49 +++++++++++++++++++++++wwwllwwwwwww++w+++ww++++++++++++++++++++++++wwllwwwwww+++++++++++++++wwwllwwllllwwwwwwww+wwww++++++++++++++++++
(PID.TID 0000.0001) //     48 +++++++++++++++++++++++wwwlllwwww+++++++ww++++++++++++++++++++++w+www+wwwwww+++++lll+++++++wlllllllwwwwwwwwwww++ww+++w++++++++++++++++
(PID.TID 0000.0001) //     47 +++++++++++++++++++++++wwwllllwww+++++ww++++++++++++++++++++++++www++w++w+wwwwwwwlllw+++++wlllllwwwwwlwwwwwwww+ww+++++++++++++++++++++
(PID.TID 0000.0001) //     46 +++++++++++++++++++++++wllllllwww++++ww+++++++++++++++++++++++++www+++++w+w++wwwwllll+wwwwwllllwllllllllwwww++++w+++w+++++++++++++++++
(PID.TID 0000.0001) //     45 ++++++++++++++++++++++++wwwlllww++++ww+++++++++++++++++++++++++++wwwww+++++++++wwwwlllwwwlllll------lllllwww++++++www+++++++++++++++++
(PID.TID 0000.0001) //     44 +++++++++++++++++++++++++wwwwwww++++++++++++++++++++++++++++++++lwwwww+w+++++++wwwwwllwwwlllwlll-lll--llwww+++++++++++++++++++++++++++
(PID.TID 0000.0001) //     43 ++++++++++++++++++++++++++wwlwww+++++++++++++++++++++++++++++++wwwwwwwwww+++++wwwww++lllwwlw++wl---lllllwwwwww++++++++++++++++++++++++
(PID.TID 0000.0001) //     42 ++++++++++++++++++++++++++w+wlww+++++++++++++++++++++++++++++++ww+++wwwwww+ww+wwwwww+wwwwww++w+++wlwwlllwwwwww++++++++++++++++++++++++
(PID.TID 0000.0001) //     41 +++++++++++++++++++++++++++++llw+++++++++++++++++++++++++++++++++++wwwwwwwwww++wwwww+++w+++++wwwww++wwwwwwwwww++++++++++++++++++++++++
(PID.TID 0000.0001) //     40 +++++++++++++++++++++++++++++wllw++++++++++++++++++++++++++++++++++wwwwwwwwww++wwwww+++++++++wwwww++wwwww+++++++++++++++++++++++++++++
(PID.TID 0000.0001) //     39 ++++++++++++++++++++++++++++++wllww++++++w+++++++++++++++++++++++++wwwwwwwwwwwwww+wwwww++++++ww+w++++wwww+++++++++++++++++++++++++++++
(PID.TID 0000.0001) //     38 +++++++++++++++++++++++++++++++++wwww++++++++++++++++++++++++++++++++ww+++wwwwwww+lww++++++++ww+++++++wwww++++w+++++++++++++++++++++++
(PID.TID 0000.0001) //     37 +++++++++++++++++++++++++++++++++++ww+++++++++++++++++++++++++www++++ww++wwwwwwwlww+++++++++++w++++++++++w++++++++++++++++++++++++++++
(PID.TID 0000.0001) //     36 +++++++++++++++++++++++++++++++++++++ww+wwww++++++++++++++++++www++++wwwwwwwwwwwlwwww+++++++++w+++++++++++++++++++++++++++++++++++++++
(PID.TID 0000.0001) //     35 ++++++++++++++++++++++++++++++++++++++wwwl+www++++++++++++++++++++++++wwwwwwwwwwllww+++++++++++++++++++++++++++w++++++++++++++++++++++
(PID.TID 0000.0001) //     34 +++++++++++++++++++++++++++++++++++++++wlw+www++++++++++++++++++++++++wwwwwwwwwwwww++++++++++++++++++w+w+++ww+++++++++++++++++++++++++
(PID.TID 0000.0001) //     33 +++++++++++++++++++++++++++++++++++++++lw++ww++++++++++++++++++++++++++ww++wwwwww+++++++++++++++++++++w++++ww+w+++++++++++++++++++++++
(PID.TID 0000.0001) //     32 ++++++++++++++++++++++++++++++++++++++wl+++++++++++++++++++++++++++++++ww+wwwwwlw++++++++++++++++++++++++++++ww+++w+++++++++++++++++++
(PID.TID 0000.0001) //     31 ++++++++++++++++++++++++++++++++++++++lw++++++++++++++++++++++++++++++++wwwwwwwww++++++++++++++++++++++w++++++w++++wllw+++++++++++++++
(PID.TID 0000.0001) //     30 ++++++++++++++++++++++++++++++++++++++wl++++++++++++ww++++++++++++++++++wwwwwwwww++++++++++++++++++++++++www+++++++++lww++++++++++++++
(PID.TID 0000.0001) //     35 ++++++++++++++++++++++++++++++++++++++wwwl+www++++++++++++++++++++++++wwwwwwwwwwllww+++++++++++++++++++++++++++w++++++++++++++++++++++
(PID.TID 0000.0001) //     34 +++++++++++++++++++++++++++++++++++++++wlw+www++++++++++++++++++++++++wwwwwwwwwwwww++++++++++++++++++w+w+++ww+++++++++++++++++++++++++
(PID.TID 0000.0001) //     33 +++++++++++++++++++++++++++++++++++++++lw++ww++++++++++++++++++++++++++ww++wwwwww+++++++++++++++++++++w++++ww+w+++++++++++++++++++++++
(PID.TID 0000.0001) //     32 ++++++++++++++++++++++++++++++++++++++wl+++++++++++++++++++++++++++++++ww+wwwwwlw++++++++++++++++++++++++++++ww+++w+++++++++++++++++++
(PID.TID 0000.0001) //     31 ++++++++++++++++++++++++++++++++++++++lw++++++++++++++++++++++++++++++++wwwwwwwww++++++++++++++++++++++w++++++w++++wllw+++++++++++++++
(PID.TID 0000.0001) //     30 ++++++++++++++++++++++++++++++++++++++wl++++++++++++ww++++++++++++++++++wwwwwwwww++++++++++++++++++++++++www+++++++++lww++++++++++++++
(PID.TID 0000.0001) //     29 +++++++++++++++++++++++++++++++++++++++lw+++w++ww+wwww++++++++++++++++++wwwwwwwww++++++++++++++++++++++++++++w+w++++++++++++++++++++++
(PID.TID 0000.0001) //     28 +++++++++++++++++++++++++++++++++++++++wllw+wwwwwwwww+++++++++++++++++++wwwwwwwww+++++++++++++++++++++++++++++++++++++++++++++++++++++
(PID.TID 0000.0001) //     27 ++++++++++++++++++++++++++++++++++++++++lllw+wwwwwwww++++++++++++++++++wwwwwwwwww+++w+++++++++++++++++++++++++++++++++++++++++++++++++
(PID.TID 0000.0001) //     26 +++++++++++++++++++++++++++++++++++++++++wllw++wwwwww++++++++++++++++++wwwwwwww++++ww+++++++++++++++++++++++++++w+++++w+++++++++++++++
(PID.TID 0000.0001) //     25 ++++++++++++++++++++++++++++++++++++++++++llw++wwwwww+++++++++++++++++++wwwwwww++++w++++++++++++++++++++++++ww++www+++w+++++++++++++++
(PID.TID 0000.0001) //     24 ++++++++++++++++++++++++++++++++++++++++++llw++wwww+++++++++++++++++++++wwwwwww++++w++++++++++++++++++++++++wwwwwww++++w++++++++++++++
(PID.TID 0000.0001) //     23 ++++++++++++++++++++++++++++++++++++++++++ll++++ww++++++++++++++++++++++wwwwww++++++++++++++++++++++++++++++wwwwwww++++w++++++++++++++
(PID.TID 0000.0001) //     22 ++++++++++++++++++++++++++++++++++++++++++lw++++ww+++++++++++++++++++++++wwwwl+++++++++++++++++++++++++++++++ww+++++++++w+++++++++++++
(PID.TID 0000.0001) //     21 +++++++++++++++++++++++++++++++++++++++++wlw++++++++++++++++++++++++++++++www+++++++++++++++++++++++++++++++++++++++++++w+++++++++++++
(PID.TID 0000.0001) //     20 +++++++++++++++++++++++++++++++++++++++++wlw+++++++++++++++++++++++++++++++++++++++++++++++++++++++++++++++++++++++++++ww+++++++++++++
(PID.TID 0000.0001) //     19 +w+++++++++++++++++++++++++++++++++++++++ww+++++++++++++++++++++++++++++++++++++++++++++++++++++++++++++++++++++++++++ww+++++++++w++++
(PID.TID 0000.0001) //     18 w++++++++++++++++++++++++++++++++++++++++www++++++++++++++++++++++++++++++++++++++++++++++++++++++++++++++++++++++++++++++++++++w+++++
(PID.TID 0000.0001) //     17 +++++++++++++++++++++++++++++++++++++++++ww++++++++++++++++++++++++++++++++++++++++++++++++++++++++++++++++++++++++++++++++++++w++++++
(PID.TID 0000.0001) //     16 ++++++++++++++++++++++++++++++++++++++++www+++++++++++++++++++++++++++++++++++++++++++++++++++++++++++++++++++++++++++++++++++++++++++
(PID.TID 0000.0001) //     15 ++++++++++++++++++++++++++++++++++++++++www+++++++++++++++++++++++++++++++++++++++++++++++++++++++++++++++++++++++++++++++++++++++++++
(PID.TID 0000.0001) //     14 ++++++++++++++++++++++++++++++++++++++++++++++++++++++++++++++++++++++++++++++++++++++++++++++++++++++++++++++++++++++++++++++++++++++
(PID.TID 0000.0001) //     13 ++++++++++++++++++++++++++++++++++++++++++w+++++++++++++++++++++++++++++++++++++++++++++++++++++++++++++++++++++++++++++++++++++++++++
(PID.TID 0000.0001) //     12 ++++++++++++++++++++++++++++++++++++++++++++++++++++++++++++++++++++++++++++++++++++++++++++++++++++++++++++++++++++++++++++++++++++++
(PID.TID 0000.0001) //     11 ++++++++++++++++++++++++++++++++++++++++++++++++++++++++++++++++++++++++++++++++++++++++++++++++++++++++++++++++++++++++++++++++++++++
(PID.TID 0000.0001) //     10 +++++++++++++++++++++++++++++++++++++++++++++w++++++++++++++++++++++++++++++++++++++++++++++++++++++++++++++++++++++++++++++++++++++++
(PID.TID 0000.0001) //      9 +++++++++++++++++++++++++++++++++++++++++++ww+++++++++++++++++++++++++++++++++++++++wwww+++++++++wwwwwwwwwwwwwwwwwwwww++++++++++++++++
(PID.TID 0000.0001) //      8 +++++++++++++++++++++++++++++++++++++++++wwww+++++++++++++++++++++++++++++++++wwwwwlllllllww+wwlllllllllllllllllllllllwwwwww++++++++++
(PID.TID 0000.0001) //      7 +++++++++++++++++++++++++++++++++++++++++wwwww++++++++++++++++wwwwllllllllllllllllllllllllwwwllllllllllllllllllllllllllllllllwww++++++
(PID.TID 0000.0001) //      6 ++++++++++++++++wwwwwwwwwwwwwwwwwwwwwwwwwwwww+++++++++++++++wwlllllllllllllllllllllllllllwwllllllllllllllllllllllllllllllllwww++++++++
(PID.TID 0000.0001) //      5 ++++++++++++wwwwwwwllllwwwwwwwwwwwwwwww++++++++++w+++++wwwwwllllllllllllllllllllllllllllllllllllllllllllllllllllllllllllllllwww+++++++
(PID.TID 0000.0001) //      4 ++++++++++++wwwwwwwwwwwwwwwwwllllllwwwww+++++++wwwwwwwwwwwwwlllllllllllllllllllllllllllllllllllllllllllllllllllllllllllllwwww+++++++++
(PID.TID 0000.0001) //      3 www++++++++++++wwwwwwwwwwwwwllllllwwwwwwwwwwwwwwwwwwwwwwwlllllllllllllllllllllllllllllllllllllllllllllllllllllllllllllllllllllwwwww+++
(PID.TID 0000.0001) //      2 llllllllllllllllllllllllllllllllllwwwwwwwwwwllllllllllllllllllllllllllllllllllllllllllllllllllllllllllllllllllllllllllllllllllllllllll
(PID.TID 0000.0001) //      1 llllllllllllllllllllllllllllllllllllllllllllllllllllllllllllllllllllllllllllllllllllllllllllllllllllllllllllllllllllllllllllllllllllll
(PID.TID 0000.0001) //      0 ......................................................................................................................................
(PID.TID 0000.0001) //     -1 ......................................................................................................................................
(PID.TID 0000.0001) //     -2 ......................................................................................................................................
(PID.TID 0000.0001) // =======================================================
(PID.TID 0000.0001) // END OF FIELD                                          =
(PID.TID 0000.0001) // =======================================================
(PID.TID 0000.0001) 
(PID.TID 0000.0001) // =======================================================
(PID.TID 0000.0001) // Field hFacC at iteration          1
(PID.TID 0000.0001) // CMIN =          1.000000000000000E+00
(PID.TID 0000.0001) // CMAX =          1.000000000000000E+00
(PID.TID 0000.0001) // CINT =          0.000000000000000E+00
(PID.TID 0000.0001) // SYMBOLS (CMIN->CMAX): -abcdefghijklmnopqrstuvwxyz+
(PID.TID 0000.0001) //                  0.0: .
(PID.TID 0000.0001) // RANGE I (Lo:Hi:Step):(  -2: 131:   1)
(PID.TID 0000.0001) // RANGE J (Lo:Hi:Step):(  67:  -2:  -1)
(PID.TID 0000.0001) // RANGE K (Lo:Hi:Step):(   1:   1:   1)
(PID.TID 0000.0001) // =======================================================
(PID.TID 0000.0001) // =======================================================
(PID.TID 0000.0001) // END OF FIELD                                          =
(PID.TID 0000.0001) // =======================================================
(PID.TID 0000.0001) 
(PID.TID 0000.0001) // =======================================================
(PID.TID 0000.0001) // Field hFacW at iteration          1
(PID.TID 0000.0001) // CMIN =          1.000000000000000E+00
(PID.TID 0000.0001) // CMAX =          1.000000000000000E+00
(PID.TID 0000.0001) // CINT =          0.000000000000000E+00
(PID.TID 0000.0001) // SYMBOLS (CMIN->CMAX): -abcdefghijklmnopqrstuvwxyz+
(PID.TID 0000.0001) //                  0.0: .
(PID.TID 0000.0001) // RANGE I (Lo:Hi:Step):(  -2: 131:   1)
(PID.TID 0000.0001) // RANGE J (Lo:Hi:Step):(  67:  -2:  -1)
(PID.TID 0000.0001) // RANGE K (Lo:Hi:Step):(   1:   1:   1)
(PID.TID 0000.0001) // =======================================================
(PID.TID 0000.0001) // =======================================================
(PID.TID 0000.0001) // END OF FIELD                                          =
(PID.TID 0000.0001) // =======================================================
(PID.TID 0000.0001) 
(PID.TID 0000.0001) // =======================================================
(PID.TID 0000.0001) // Field hFacS at iteration          1
(PID.TID 0000.0001) // CMIN =          1.000000000000000E+00
(PID.TID 0000.0001) // CMAX =          1.000000000000000E+00
(PID.TID 0000.0001) // CINT =          0.000000000000000E+00
(PID.TID 0000.0001) // SYMBOLS (CMIN->CMAX): -abcdefghijklmnopqrstuvwxyz+
(PID.TID 0000.0001) //                  0.0: .
(PID.TID 0000.0001) // RANGE I (Lo:Hi:Step):(  -2: 131:   1)
(PID.TID 0000.0001) // RANGE J (Lo:Hi:Step):(  67:  -2:  -1)
(PID.TID 0000.0001) // RANGE K (Lo:Hi:Step):(   1:   1:   1)
(PID.TID 0000.0001) // =======================================================
(PID.TID 0000.0001) // =======================================================
(PID.TID 0000.0001) // END OF FIELD                                          =
(PID.TID 0000.0001) // =======================================================
(PID.TID 0000.0001) 
(PID.TID 0000.0001)  PACKAGES_BOOT: opening data.pkg
(PID.TID 0000.0001)  OPEN_COPY_DATA_FILE: opening file data.pkg
(PID.TID 0000.0001) // =======================================================
(PID.TID 0000.0001) // Parameter file "data.pkg"
(PID.TID 0000.0001) // =======================================================
(PID.TID 0000.0001) ># Packages
(PID.TID 0000.0001) > &PACKAGES
(PID.TID 0000.0001) > useAIM=.TRUE.,
(PID.TID 0000.0001) > useSHAP_FILT=.TRUE.,
(PID.TID 0000.0001) > useZONAL_FILT=.TRUE.,
(PID.TID 0000.0001) > &
(PID.TID 0000.0001) 
(PID.TID 0000.0001)  PACKAGES_BOOT: finished reading data.pkg
(PID.TID 0000.0001)  SHAP_FILT_READPARMS: opening data.shap
(PID.TID 0000.0001)  OPEN_COPY_DATA_FILE: opening file data.shap
(PID.TID 0000.0001) // =======================================================
(PID.TID 0000.0001) // Parameter file "data.shap"
(PID.TID 0000.0001) // =======================================================
(PID.TID 0000.0001) ># Shapiro Filter parameters
(PID.TID 0000.0001) > &SHAP_PARM01
(PID.TID 0000.0001) > shap_filt_uvStar=.FALSE.,
(PID.TID 0000.0001) > shap_filt_TrStagg=.TRUE.,
(PID.TID 0000.0001) > Shap_funct=2,
(PID.TID 0000.0001) > nShapT=4,
(PID.TID 0000.0001) > nShapUV=4,
(PID.TID 0000.0001) > nShapTrPhys=0,
(PID.TID 0000.0001) > nShapUVPhys=0,
(PID.TID 0000.0001) > Shap_Trtau=5400.,
(PID.TID 0000.0001) > Shap_uvtau=1800.,
(PID.TID 0000.0001) > Shap_noSlip=1.,
(PID.TID 0000.0001) >#Shap_diagFreq=2592000.,
(PID.TID 0000.0001) > &
(PID.TID 0000.0001) >
(PID.TID 0000.0001) 
(PID.TID 0000.0001)  SHAP_FILT_READPARMS: finished reading data.shap
(PID.TID 0000.0001) Shap_funct =   /* select Shapiro filter function */
(PID.TID 0000.0001)                       2
(PID.TID 0000.0001)     ;
(PID.TID 0000.0001) nShapTr =   /* power of Shapiro filter for Tracers */
(PID.TID 0000.0001)                       4
(PID.TID 0000.0001)     ;
(PID.TID 0000.0001) nShapUV =   /* power of Shapiro filter for momentum */
(PID.TID 0000.0001)                       4
(PID.TID 0000.0001)     ;
(PID.TID 0000.0001) nShapTrPhys =   /* power of physical-space filter (Tracer) */
(PID.TID 0000.0001)                       0
(PID.TID 0000.0001)     ;
(PID.TID 0000.0001) nShapUVPhys =   /* power of physical-space filter (Momentum) */
(PID.TID 0000.0001)                       0
(PID.TID 0000.0001)     ;
(PID.TID 0000.0001) Shap_Trtau =   /* time scale of Shapiro filter (Tracer) */
(PID.TID 0000.0001)                 5.400000000000000E+03
(PID.TID 0000.0001)     ;
(PID.TID 0000.0001) Shap_TrLength =   /* Length scale of Shapiro filter (Tracer) */
(PID.TID 0000.0001)                 0.000000000000000E+00
(PID.TID 0000.0001)     ;
(PID.TID 0000.0001) Shap_uvtau =   /* time scale of Shapiro filter (Momentum) */
(PID.TID 0000.0001)                 1.800000000000000E+03
(PID.TID 0000.0001)     ;
(PID.TID 0000.0001) Shap_uvLength =   /* Length scale of Shapiro filter (Momentum) */
(PID.TID 0000.0001)                 0.000000000000000E+00
(PID.TID 0000.0001)     ;
(PID.TID 0000.0001) Shap_noSlip =  /* No-slip parameter (0=Free-slip ; 1=No-slip)*/
(PID.TID 0000.0001)                 1.000000000000000E+00
(PID.TID 0000.0001)     ;
(PID.TID 0000.0001) Shap_diagFreq =   /* Frequency^-1 for diagnostic output (s)*/
(PID.TID 0000.0001)                 0.000000000000000E+00
(PID.TID 0000.0001)     ;
(PID.TID 0000.0001)  ZONAL_FILT_READPARMS: opening data.zonfilt
(PID.TID 0000.0001)  OPEN_COPY_DATA_FILE: opening file data.zonfilt
(PID.TID 0000.0001) // =======================================================
(PID.TID 0000.0001) // Parameter file "data.zonfilt"
(PID.TID 0000.0001) // =======================================================
(PID.TID 0000.0001) ># Zonal Filter parameters
(PID.TID 0000.0001) > &ZONFILT_PARM01
(PID.TID 0000.0001) > zonal_filt_uvStar =.FALSE.,
(PID.TID 0000.0001) > zonal_filt_TrStagg=.TRUE.,
(PID.TID 0000.0001) > zonal_filt_lat=45.,
(PID.TID 0000.0001) > zonal_filt_sinpow=2,
(PID.TID 0000.0001) > zonal_filt_cospow=2,
(PID.TID 0000.0001) > zonal_filt_mode2dx=0,
(PID.TID 0000.0001) > &
(PID.TID 0000.0001) >
(PID.TID 0000.0001) 
(PID.TID 0000.0001)  ZONAL_FILT_READPARMS: finished reading data.zonfilt
(PID.TID 0000.0001) 
(PID.TID 0000.0001) // ===================================
(PID.TID 0000.0001) // GAD parameters :
(PID.TID 0000.0001) // ===================================
(PID.TID 0000.0001) tempAdvScheme =   /* Temp. advection scheme selector */
(PID.TID 0000.0001)                       2
(PID.TID 0000.0001)     ;
(PID.TID 0000.0001) tempMultiDimAdvec =   /* use Muti-Dim Advec method for Temp */
(PID.TID 0000.0001)                   F
(PID.TID 0000.0001)     ;
(PID.TID 0000.0001) tempAdamsBashforth =   /* use Adams-Bashforth time-stepping for Temp */
(PID.TID 0000.0001)                   T
(PID.TID 0000.0001)     ;
(PID.TID 0000.0001) saltAdvScheme =   /* Salt. advection scheme selector */
(PID.TID 0000.0001)                       3
(PID.TID 0000.0001)     ;
(PID.TID 0000.0001) saltMultiDimAdvec =   /* use Muti-Dim Advec method for Salt */
(PID.TID 0000.0001)                   F
(PID.TID 0000.0001)     ;
(PID.TID 0000.0001) saltAdamsBashforth =   /* use Adams-Bashforth time-stepping for Salt */
(PID.TID 0000.0001)                   T
(PID.TID 0000.0001)     ;
(PID.TID 0000.0001) // ===================================
- INPHYS: k,SIG, SIGH,   SIGL,   WVI(1),  WVI(2):
  1   0.0750   0.1500  -2.5903   0.8306   0.5757
  2   0.2500   0.3500  -1.3863   1.4427   0.4854
  3   0.5000   0.6500  -0.6931   2.2818   0.5987
  4   0.7750   0.9000  -0.2549   4.9116   0.7344
  5   0.9500   1.0000  -0.0513   0.0000   0.0377
- INPHYS: end setup WVI.
(PID.TID 0000.0001)  AIM_READ_PHYSPARMS: opening data.aimphys
(PID.TID 0000.0001)  OPEN_COPY_DATA_FILE: opening file data.aimphys
(PID.TID 0000.0001) // =======================================================
(PID.TID 0000.0001) // Parameter file "data.aimphys"
(PID.TID 0000.0001) // =======================================================
(PID.TID 0000.0001) ># AIM physics package parameters:
(PID.TID 0000.0001) >
(PID.TID 0000.0001) >C--   AIM interface parameter (namelist AIM_PARAMS):
(PID.TID 0000.0001) >#     aim_useFMsurfBC :: select surface B.C. from Franco Molteni
(PID.TID 0000.0001) >#     aim_useMMsurfFc :: select Monthly Mean surface forcing (e.g., NCEP)
(PID.TID 0000.0001) >#     aim_surfPotTemp :: surf.Temp input file is in Pot.Temp (aim_useMMsurfFc)
(PID.TID 0000.0001) >#     aim_MMsufx   :: sufix for all Monthly Mean surface forcing files
(PID.TID 0000.0001) >#     aim_MMsufxLength :: Length of sufix (Monthly Mean surf. forc. files)
(PID.TID 0000.0001) >#     aim_LandFile :: file name for Land fraction       (F.M. surfBC)
(PID.TID 0000.0001) >#     aim_albFile  :: file name for Albedo input file   (F.M. surfBC)
(PID.TID 0000.0001) >#     aim_vegFile  :: file name for vegetation fraction (F.M. surfBC)
(PID.TID 0000.0001) >#     aim_sstFile  :: file name for  Sea.Surf.Temp      (F.M. surfBC)
(PID.TID 0000.0001) >#     aim_lstFile  :: file name for Land.Surf.Temp      (F.M. surfBC)
(PID.TID 0000.0001) >#     aim_oiceFile :: file name for Sea Ice fraction    (F.M. surfBC)
(PID.TID 0000.0001) >#     aim_snowFile :: file name for Snow depth          (F.M. surfBC)
(PID.TID 0000.0001) >#     aim_swcFile  :: file name for Soil Water content  (F.M. surfBC)
(PID.TID 0000.0001) >#     aim_dragStrato :: stratospheric-drag damping time scale (s)
(PID.TID 0000.0001) >#     aim_diagFreq :: Frequency^-1 for diagnostic output (s)
(PID.TID 0000.0001) >#     aim_tendFreq :: Frequency^-1 for tendencies output (s)
(PID.TID 0000.0001) > &AIM_PARAMS
(PID.TID 0000.0001) >   aim_useFMsurfBC=.FALSE.,
(PID.TID 0000.0001) >   aim_useMMsurfFc=.TRUE.,
(PID.TID 0000.0001) >   aim_surfPotTemp=.TRUE.,
(PID.TID 0000.0001) >   aim_MMsufx = '.ft.bin',
(PID.TID 0000.0001) >   aim_MMsufxLength = 7,
(PID.TID 0000.0001) >#  aim_dragStrato= 2592000.,
(PID.TID 0000.0001) > &
(PID.TID 0000.0001) >
(PID.TID 0000.0001) >#--   Physical constants
(PID.TID 0000.0001) >#      P0   = reference pressure
(PID.TID 0000.0001) >#      GG   = gravity accel.
(PID.TID 0000.0001) >#      RD   = gas constant for dry air
(PID.TID 0000.0001) >#      CP   = specific heat at constant pressure
(PID.TID 0000.0001) >#      ALHC = latent heat of condensation
(PID.TID 0000.0001) >#      SBC  = Stefan-Boltzmann constant
(PID.TID 0000.0001) >
(PID.TID 0000.0001) >#--   Constants for forcing fields (namelist AIM_PAR_FOR):
(PID.TID 0000.0001) >#      SOLC   = Solar constant (area averaged) in W/m^2
(PID.TID 0000.0001) >#      ALBSEA = Albedo over sea
(PID.TID 0000.0001) >#      ALBICE = Albedo over sea ice (for ice fraction = 1)
(PID.TID 0000.0001) >#      ALBSN  = Albedo over snow (for snow depth > SDALB)
(PID.TID 0000.0001) >#      SDALB  = Snow depth (mm water) corresponding to maximum albedo
(PID.TID 0000.0001) >#      SWCAP  = Soil wetness at field capacity (volume fraction)
(PID.TID 0000.0001) >#      SWWIL  = Soil wetness at wilting point  (volume fraction)
(PID.TID 0000.0001) > &AIM_PAR_FOR
(PID.TID 0000.0001) > &
(PID.TID 0000.0001) >
(PID.TID 0000.0001) >#--   Constants for surface fluxes (namelist AIM_PAR_SFL):
(PID.TID 0000.0001) >#      FWIND0 = ratio of near-sfc wind to lowest-level wind
(PID.TID 0000.0001) >#      FTEMP0 = weight for near-sfc temperature extrapolation (0-1) :
(PID.TID 0000.0001) >#               1 : linear extrapolation from two lowest levels
(PID.TID 0000.0001) >#               0 : constant potential temperature ( = lowest level)
(PID.TID 0000.0001) >#      FHUM0  = weight for near-sfc specific humidity extrapolation (0-1) :
(PID.TID 0000.0001) >#               1 : extrap. with constant relative hum. ( = lowest level)
(PID.TID 0000.0001) >#               0 : constant specific hum. ( = lowest level)
(PID.TID 0000.0001) >#      CDL    = drag coefficient for momentum over land
(PID.TID 0000.0001) >#      CDS    = drag coefficient for momentum over sea
(PID.TID 0000.0001) >#      CHL    = heat exchange coefficient over land
(PID.TID 0000.0001) >#      CHS    = heat exchange coefficient over sea
(PID.TID 0000.0001) >#      VGUST  = wind speed for sub-grid-scale gusts
(PID.TID 0000.0001) >#      CTDAY  = daily-cycle correction (dTskin/dSSRad)
(PID.TID 0000.0001) >#      DTHETA = Potential temp. gradient for stability correction
(PID.TID 0000.0001) >#      FSTAB  = Amplitude of stability correction (fraction)
(PID.TID 0000.0001) >#      HDRAG  = Height scale for orographic correction
(PID.TID 0000.0001) >#      FHDRAG = Amplitude of orographic correction (fraction)
(PID.TID 0000.0001) > &AIM_PAR_SFL
(PID.TID 0000.0001) > &
(PID.TID 0000.0001) >
(PID.TID 0000.0001) >#--   Convection constants (namelist AIM_PAR_CNV):
(PID.TID 0000.0001) >#      PSMIN  = minimum (norm.) sfc. pressure for the occurrence of convection
(PID.TID 0000.0001) >#      TRCNV  = time of relaxation (in hours) towards reference state
(PID.TID 0000.0001) >#      QBL    = specific hum. threshold in the boundary layer
(PID.TID 0000.0001) >#      RHBL   = relative hum. threshold in the boundary layer
(PID.TID 0000.0001) >#      RHIL   = rel. hum. threshold in intermed. layers for secondary mass flux
(PID.TID 0000.0001) >#      ENTMAX = max. entrainment as a fraction of cloud-base mass flux
(PID.TID 0000.0001) >#      SMF    = ratio between secondary and primary mass flux at cloud-base
(PID.TID 0000.0001) > &AIM_PAR_CNV
(PID.TID 0000.0001) > &
(PID.TID 0000.0001) >
(PID.TID 0000.0001) >#--   Constants for large-scale condendation (namelist AIM_PAR_LSC):
(PID.TID 0000.0001) >#      TRLSC  = Relaxation time (in hours) for specific humidity
(PID.TID 0000.0001) >#      RHLSC  = Maximum relative humidity threshold (at sigma=1)
(PID.TID 0000.0001) >#      DRHLSC = Vertical range of relative humidity threshold
(PID.TID 0000.0001) >#      QSMAX  = used to define the maximum latent heat release
(PID.TID 0000.0001) > &AIM_PAR_LSC
(PID.TID 0000.0001) > &
(PID.TID 0000.0001) >
(PID.TID 0000.0001) >#--   Radiation constants (namelist AIM_PAR_RAD):
(PID.TID 0000.0001) >#      RHCL1  = relative hum. corresponding to cloud cover = 0
(PID.TID 0000.0001) >#      RHCL2  = relative hum. corresponding to cloud cover = 1
(PID.TID 0000.0001) >#      QACL1  = specific hum. threshold for cloud cover in the upper troposphere
(PID.TID 0000.0001) >#      QACL2  = specific hum. threshold for cloud cover in the upper troposphere
(PID.TID 0000.0001) >#      ALBCL  = cloud albedo (for cloud cover = 1)
(PID.TID 0000.0001) >#      EPSSW  = fraction of incoming solar radiation absorbed by ozone
(PID.TID 0000.0001) >#      EPSLW  = fraction of surface LW radiation emitted directly to space
(PID.TID 0000.0001) >#      EMISFC = longwave surface emissivity
(PID.TID 0000.0001) >#--:            shortwave absorptivities (for dp = 10^5 Pa) :
(PID.TID 0000.0001) >#      ABSDRY = abs. of dry air      (visible band)
(PID.TID 0000.0001) >#      ABSAER = abs. of aerosols     (visible band)
(PID.TID 0000.0001) >#      ABSWV1 = abs. of water vapour (visible band, for dq = 1 g/kg)
(PID.TID 0000.0001) >#      ABSWV2 = abs. of water vapour (near IR band, for dq = 1 g/kg)
(PID.TID 0000.0001) >#      ABSCL1 = abs. of clouds       (visible band, constant term)
(PID.TID 0000.0001) >#      ABSCL2 = abs. of clouds       (visible band, for dw = 1 g/kg)
(PID.TID 0000.0001) >#--:            longwave absorptivities (per dp = 10^5 Pa) :
(PID.TID 0000.0001) >#      ABLWIN = abs. of air in "window" band
(PID.TID 0000.0001) >#      ABLCO2 = abs. of air in CO2 band
(PID.TID 0000.0001) >#      ABLWV1 = abs. of water vapour in H2O band 1 (weak),   for dq = 1 g/kg
(PID.TID 0000.0001) >#      ABLWV2 = abs. of water vapour in H2O band 2 (strong), for dq = 1 g/kg
(PID.TID 0000.0001) >#      ABLCL1 = abs. of clouds       in "window" band,       constant term
(PID.TID 0000.0001) >#      ABLCL2 = abs. of clouds       in "window" band,       for dw = 1 g/kg
(PID.TID 0000.0001) > &AIM_PAR_RAD
(PID.TID 0000.0001) > &
(PID.TID 0000.0001) >
(PID.TID 0000.0001) >#--   Constants for vertical dif. and sh. conv. (namelist AIM_PAR_VDI):
(PID.TID 0000.0001) >#      TRSHC  = relaxation time (in hours) for shallow convection
(PID.TID 0000.0001) >#      TRVDI  = relaxation time (in hours) for moisture diffusion
(PID.TID 0000.0001) >#      TRVDS  = relaxation time (in hours) for super-adiab. conditions
(PID.TID 0000.0001) >#      RHGRAD = maximum gradient of relative humidity (d_RH/d_sigma)
(PID.TID 0000.0001) >#      SEGRAD = minimum gradient of dry static energy (d_DSE/d_phi)
(PID.TID 0000.0001) > &AIM_PAR_VDI
(PID.TID 0000.0001) > &
(PID.TID 0000.0001) >
(PID.TID 0000.0001) 
(PID.TID 0000.0001)  AIM_READ_PHYSPARMS: finished reading data.aimphys
(PID.TID 0000.0001) 
(PID.TID 0000.0001) // ===================================
(PID.TID 0000.0001) // AIM physics parameters :
(PID.TID 0000.0001) // ===================================
(PID.TID 0000.0001) useLand =   /* use Land package for surf.BC over land  */
(PID.TID 0000.0001)                   F
(PID.TID 0000.0001)     ;
(PID.TID 0000.0001) aim_useFMsurfBC =   /* F.Molteni surf. BC scheme on/off flag */
(PID.TID 0000.0001)                   F
(PID.TID 0000.0001)     ;
(PID.TID 0000.0001) aim_useMMsurfFc =   /* Monthly Mean surf. Forcing on/off flag */
(PID.TID 0000.0001)                   T
(PID.TID 0000.0001)     ;
(PID.TID 0000.0001) aim_surfPotTemp =   /* Surf Temp file in Pot.Temp on/off flag */
(PID.TID 0000.0001)                   T
(PID.TID 0000.0001)     ;
(PID.TID 0000.0001) aim_dragStrato= /* stratospheric-drag damping time scale (s) */
(PID.TID 0000.0001)                 0.000000000000000E+00
(PID.TID 0000.0001)     ;
(PID.TID 0000.0001) aim_taveFreq =   /* Frequency^-1 for time-Aver. output (s) */
(PID.TID 0000.0001)                 2.592000000000000E+06
(PID.TID 0000.0001)     ;
(PID.TID 0000.0001) aim_diagFreq =   /* Frequency^-1 for diagnostic output (s) */
(PID.TID 0000.0001)                 2.592000000000000E+06
(PID.TID 0000.0001)     ;
(PID.TID 0000.0001) aim_tendFreq =   /* Frequency^-1 for tendencies output (s) */
(PID.TID 0000.0001)                 0.000000000000000E+00
(PID.TID 0000.0001)     ;
(PID.TID 0000.0001) AIM_FOR:   SOLC =   /* Solar constant (area averaged) in W/m2 */
(PID.TID 0000.0001)                 3.420000000000000E+02
(PID.TID 0000.0001)     ;
(PID.TID 0000.0001) AIM_FOR: ALBSEA =   /* Albedo over sea [0-1]      */
(PID.TID 0000.0001)                 7.000000000000001E-02
(PID.TID 0000.0001)     ;
(PID.TID 0000.0001) AIM_FOR: ALBICE =   /* Albedo over sea ice (for ice fraction =1) */
(PID.TID 0000.0001)                 6.000000000000000E-01
(PID.TID 0000.0001)     ;
(PID.TID 0000.0001) AIM_FOR:  ALBSN =   /* Albedo over snow (for snow depth > SDALB) */
(PID.TID 0000.0001)                 6.000000000000000E-01
(PID.TID 0000.0001)     ;
(PID.TID 0000.0001) AIM_FOR:  SDALB =   /* Snow depth (mm H2O) corresp. maximum albedo */
(PID.TID 0000.0001)                 6.000000000000000E+01
(PID.TID 0000.0001)     ;
(PID.TID 0000.0001) AIM_FOR:  SWCAP =   /* Soil wetness at field capacity (Vol.fract.) */
(PID.TID 0000.0001)                 3.000000000000000E-01
(PID.TID 0000.0001)     ;
(PID.TID 0000.0001) AIM_FOR:  SWWIL =   /* Soil wetness at wilting point  (Vol.fract.) */
(PID.TID 0000.0001)                 1.700000000000000E-01
(PID.TID 0000.0001)     ;
(PID.TID 0000.0001) AIM_SFL: FWIND0 =   /* ratio of near-sfc wind to lowest-level wind */
(PID.TID 0000.0001)                 6.000000000000000E-01
(PID.TID 0000.0001)     ;
(PID.TID 0000.0001) AIM_SFL: FTEMP0 =  /* weight for near-sfc temp. extrapolation (0-1)*/
(PID.TID 0000.0001)                 1.000000000000000E+00
(PID.TID 0000.0001)     ;
(PID.TID 0000.0001) AIM_SFL:  FHUM0 =  /* weight for near-sfc spec.humid. extrap. (0-1)*/
(PID.TID 0000.0001)                 1.000000000000000E+00
(PID.TID 0000.0001)     ;
(PID.TID 0000.0001) AIM_SFL:    CDL =   /* drag coefficient for momentum over land */
(PID.TID 0000.0001)                 1.800000000000000E-03
(PID.TID 0000.0001)     ;
(PID.TID 0000.0001) AIM_SFL:    CDS =   /* drag coefficient for momentum over sea  */
(PID.TID 0000.0001)                 8.000000000000000E-04
(PID.TID 0000.0001)     ;
(PID.TID 0000.0001) AIM_SFL:    CHL =   /* heat exchange coefficient over land */
(PID.TID 0000.0001)                 1.200000000000000E-03
(PID.TID 0000.0001)     ;
(PID.TID 0000.0001) AIM_SFL:    CHS =   /* heat exchange coefficient over sea  */
(PID.TID 0000.0001)                 8.000000000000000E-04
(PID.TID 0000.0001)     ;
(PID.TID 0000.0001) AIM_SFL:  VGUST =   /* wind speed [m/s] for sub-grid-scale gusts */
(PID.TID 0000.0001)                 5.000000000000000E+00
(PID.TID 0000.0001)     ;
(PID.TID 0000.0001) AIM_SFL:  CTDAY =   /* daily-cycle correction (dTskin/dSSRad) */
(PID.TID 0000.0001)                 1.000000000000000E-02
(PID.TID 0000.0001)     ;
(PID.TID 0000.0001) AIM_SFL: DTHETA =   /* Pot.Temp. gradient for stability correction */
(PID.TID 0000.0001)                 3.000000000000000E+00
(PID.TID 0000.0001)     ;
(PID.TID 0000.0001) AIM_SFL:  FSTAB =   /* Amplitude of stability correction (fract.) */
(PID.TID 0000.0001)                 6.700000000000000E-01
(PID.TID 0000.0001)     ;
(PID.TID 0000.0001) AIM_SFL:  HDRAG =   /* Height scale for orographic correction */
(PID.TID 0000.0001)                 2.000000000000000E+03
(PID.TID 0000.0001)     ;
(PID.TID 0000.0001) AIM_SFL: FHDRAG =   /* Amplitude of orographic correction (fract.)*/
(PID.TID 0000.0001)                 8.000000000000000E-01
(PID.TID 0000.0001)     ;
(PID.TID 0000.0001) AIM_CNV:  PSMIN =   /* min norm.sfc.P. for occurrence of convect. */
(PID.TID 0000.0001)                 7.000000000000000E-01
(PID.TID 0000.0001)     ;
(PID.TID 0000.0001) AIM_CNV:  TRCNV =   /* time of relaxation [h] towards ref state */
(PID.TID 0000.0001)                 6.000000000000000E+00
(PID.TID 0000.0001)     ;
(PID.TID 0000.0001) AIM_CNV:    QBL =   /* specific hum. threshold in the Bound.layer */
(PID.TID 0000.0001)                 1.500000000000000E+01
(PID.TID 0000.0001)     ;
(PID.TID 0000.0001) AIM_CNV:   RHBL =   /* relative hum. threshold in the Bound.layer */
(PID.TID 0000.0001)                 8.000000000000000E-01
(PID.TID 0000.0001)     ;
(PID.TID 0000.0001) AIM_CNV:   RHIL =   /* rel.hum. threshold (intern) for 2nd mass.Flx*/
(PID.TID 0000.0001)                 7.000000000000000E-01
(PID.TID 0000.0001)     ;
(PID.TID 0000.0001) AIM_CNV: ENTMAX =   /* time of relaxation [h] towards neutral eq. */
(PID.TID 0000.0001)                 5.000000000000000E-01
(PID.TID 0000.0001)     ;
(PID.TID 0000.0001) AIM_CNV:    SMF =   /* ratio 2ndary/primary mass.Flx at cloud-base*/
(PID.TID 0000.0001)                 5.000000000000000E-01
(PID.TID 0000.0001)     ;
(PID.TID 0000.0001) AIM_LSC:  TRLSC =   /* relaxation time [h] for supersat. spec.hum. */
(PID.TID 0000.0001)                 4.000000000000000E+00
(PID.TID 0000.0001)     ;
(PID.TID 0000.0001) AIM_LSC:  RHLSC =   /* Max rel.humidity threshold (at sigma=1) */
(PID.TID 0000.0001)                 9.000000000000000E-01
(PID.TID 0000.0001)     ;
(PID.TID 0000.0001) AIM_LSC: DRHLSC =   /* Vertical range of rel.humidity threshold */
(PID.TID 0000.0001)                 1.000000000000000E-01
(PID.TID 0000.0001)     ;
(PID.TID 0000.0001) AIM_LSC:  QSMAX =   /* Define the maximum latent heat release */
(PID.TID 0000.0001)                 5.000000000000000E+01
(PID.TID 0000.0001)     ;
(PID.TID 0000.0001) AIM_RAD:  RHCL1 =   /*  rel.hum. corresponding to cloud cover = 0 */
(PID.TID 0000.0001)                 4.500000000000000E-01
(PID.TID 0000.0001)     ;
(PID.TID 0000.0001) AIM_RAD:  RHCL2 =   /*  rel.hum. corresponding to cloud cover = 1 */
(PID.TID 0000.0001)                 8.500000000000000E-01
(PID.TID 0000.0001)     ;
(PID.TID 0000.0001) AIM_RAD:  QACL1 =   /* spec.hum. threshold for cloud, upper trop. */
(PID.TID 0000.0001)                 1.000000000000000E-01
(PID.TID 0000.0001)     ;
(PID.TID 0000.0001) AIM_RAD:  QACL2 =   /* spec.hum. threshold for cloud, upper trop. */
(PID.TID 0000.0001)                 1.000000000000000E+00
(PID.TID 0000.0001)     ;
(PID.TID 0000.0001) AIM_RAD:  ALBCL =   /*  cloud albedo (for cloud cover = 1) */
(PID.TID 0000.0001)                 4.000000000000000E-01
(PID.TID 0000.0001)     ;
(PID.TID 0000.0001) AIM_RAD:  EPSSW =   /*  fract. of inc.solar rad. absorbed by ozone */
(PID.TID 0000.0001)                 1.500000000000000E-02
(PID.TID 0000.0001)     ;
(PID.TID 0000.0001) AIM_RAD:  EPSLW =   /*  fract. of sfc LW emitted directly to space */
(PID.TID 0000.0001)                 0.000000000000000E+00
(PID.TID 0000.0001)     ;
(PID.TID 0000.0001) AIM_RAD: EMISFC =   /*  longwave surface emissivity */
(PID.TID 0000.0001)                 9.800000000000000E-01
(PID.TID 0000.0001)     ;
(PID.TID 0000.0001)  AIM_RAD : ShortWave absorptivities (for dp = 10^5 Pa) :
(PID.TID 0000.0001) AIM_RAD: ABSDRY =   /* abs. of dry air (visible band) */
(PID.TID 0000.0001)                 3.300000000000000E-02
(PID.TID 0000.0001)     ;
(PID.TID 0000.0001) AIM_RAD: ABSAER =   /* abs. of aerosols (visible band) */
(PID.TID 0000.0001)                 3.300000000000000E-02
(PID.TID 0000.0001)     ;
(PID.TID 0000.0001) AIM_RAD: ABSWV1 =   /* abs. of water vap. (vis. band)(/dq, 1g/kg) */
(PID.TID 0000.0001)                 2.200000000000000E-02
(PID.TID 0000.0001)     ;
(PID.TID 0000.0001) AIM_RAD: ABSWV1 =   /* abs. of water vap. (vis. band)(/dq, 1g/kg) */
(PID.TID 0000.0001)                 2.200000000000000E-02
(PID.TID 0000.0001)     ;
(PID.TID 0000.0001) AIM_RAD: ABSWV2 =   /* abs. of water vap.(near IR bd)(/dq, 1g/kg) */
(PID.TID 0000.0001)                 1.500000000000000E+01
(PID.TID 0000.0001)     ;
(PID.TID 0000.0001) AIM_RAD: ABSCL1 =   /* abs. of clouds (vis.band)(constant term) */
(PID.TID 0000.0001)                 0.000000000000000E+00
(PID.TID 0000.0001)     ;
(PID.TID 0000.0001) AIM_RAD: ABSCL2 =   /* abs. of clouds (vis.band) (/dw, 1g/kg) */
(PID.TID 0000.0001)                 1.000000000000000E-02
(PID.TID 0000.0001)     ;
(PID.TID 0000.0001) AIM_RAD: ABLWIN =   /* abs. of air in "window" band */
(PID.TID 0000.0001)                 7.000000000000000E-01
(PID.TID 0000.0001)     ;
(PID.TID 0000.0001) AIM_RAD: ABLCO2 =   /* abs. of air in CO2 band */
(PID.TID 0000.0001)                 4.000000000000000E+00
(PID.TID 0000.0001)     ;
(PID.TID 0000.0001) AIM_RAD: ABLWV1 =   /* abs. of Water vap. H2O bd-1(weak)(/dq,1g/kg)*/
(PID.TID 0000.0001)                 7.000000000000000E-01
(PID.TID 0000.0001)     ;
(PID.TID 0000.0001) AIM_RAD: ABLWV2 =   /* abs. of W. vap., H2O bd-2(strong)(/dq,1g/kg)*/
(PID.TID 0000.0001)                 5.000000000000000E+01
(PID.TID 0000.0001)     ;
(PID.TID 0000.0001) AIM_RAD: ABLCL1 =   /* abs. of clouds in window band (const term) */
(PID.TID 0000.0001)                 1.200000000000000E+01
(PID.TID 0000.0001)     ;
(PID.TID 0000.0001) AIM_RAD: ABLCL2 =   /* abs. of clouds in window band (/dw, 1g/kg) */
(PID.TID 0000.0001)                 0.000000000000000E+00
(PID.TID 0000.0001)     ;
(PID.TID 0000.0001) AIM_VDI:  TRSHC =   /* relaxation time [h] for shallow convection */
(PID.TID 0000.0001)                 2.400000000000000E+01
(PID.TID 0000.0001)     ;
(PID.TID 0000.0001) AIM_VDI:  TRVDI =   /* relaxation time [h] for moisture diffusion */
(PID.TID 0000.0001)                 4.000000000000000E+01
(PID.TID 0000.0001)     ;
(PID.TID 0000.0001) AIM_VDI:  TRVDS =   /* relaxation time [h] for super-adiab. cond. */
(PID.TID 0000.0001)                 5.000000000000000E+00
(PID.TID 0000.0001)     ;
(PID.TID 0000.0001) AIM_VDI: RHGRAD =   /* max gradient of rel.humidity (d_RH/d_sigma)*/
(PID.TID 0000.0001)                 5.000000000000000E-01
(PID.TID 0000.0001)     ;
(PID.TID 0000.0001) AIM_VDI: RHGRAD =   /* max grad. of dry static Energy(d_DSE/d_phi)*/
(PID.TID 0000.0001)                 5.000000000000000E-01
(PID.TID 0000.0001)     ;
INI_P_GROUND: PhiRef/g [m] at Center (integer) and Interface (half-int.) levels:
  K=  0.5  ;  r=  100000.0  ;  phiRef/g=       0.000
  K=  1.0  ;  r=   95000.0  ;  phiRef/g=     418.526
  K=  1.5  ;  r=   90000.0  ;  phiRef/g=    1219.560
  K=  2.0  ;  r=   77500.0  ;  phiRef/g=    2044.053
  K=  2.5  ;  r=   65000.0  ;  phiRef/g=    3664.142
  K=  3.0  ;  r=   50000.0  ;  phiRef/g=    5384.296
  K=  3.5  ;  r=   35000.0  ;  phiRef/g=    7701.142
  K=  4.0  ;  r=   25000.0  ;  phiRef/g=   10200.400
  K=  4.5  ;  r=   15000.0  ;  phiRef/g=   13521.874
  K=  5.0  ;  r=    7500.0  ;  phiRef/g=   17856.056
  K=  5.5  ;  r=       0.0  ;  phiRef/g=   38969.174
INI_P_GROUND: PhiRef/g [m] at Center (integer) and Interface (half-int.) levels:
  K=  0.5  ;  r=  100000.0  ;  phiRef/g=       0.000
  K=  1.0  ;  r=   95000.0  ;  phiRef/g=     418.526
  K=  1.5  ;  r=   90000.0  ;  phiRef/g=    1219.560
  K=  2.0  ;  r=   77500.0  ;  phiRef/g=    2044.053
  K=  2.5  ;  r=   65000.0  ;  phiRef/g=    3664.142
  K=  3.0  ;  r=   50000.0  ;  phiRef/g=    5384.296
  K=  3.5  ;  r=   35000.0  ;  phiRef/g=    7701.142
  K=  4.0  ;  r=   25000.0  ;  phiRef/g=   10200.400
  K=  4.5  ;  r=   15000.0  ;  phiRef/g=   13521.874
  K=  5.0  ;  r=    7500.0  ;  phiRef/g=   17856.056
  K=  5.5  ;  r=       0.0  ;  phiRef/g=   38969.174
(PID.TID 0000.0001) %MON fCori_max                    =   1.4540029928789E-04
(PID.TID 0000.0001) %MON fCori_min                    =  -1.4540029928789E-04
(PID.TID 0000.0001) %MON fCori_mean                   =  -2.2565487110447E-21
(PID.TID 0000.0001) %MON fCori_sd                     =   1.0284451245737E-04
(PID.TID 0000.0001) %MON fCoriG_max                   =   1.4526891053949E-04
(PID.TID 0000.0001) %MON fCoriG_min                   =  -1.4544410433286E-04
(PID.TID 0000.0001) %MON fCoriG_mean                  =  -2.3086365767121E-06
(PID.TID 0000.0001) %MON fCoriG_sd                    =   1.0363181330709E-04
(PID.TID 0000.0001) %MON fCoriCos_max                 =   1.4540029928789E-04
(PID.TID 0000.0001) %MON fCoriCos_min                 =   3.5693770017430E-06
(PID.TID 0000.0001) %MON fCoriCos_mean                =   9.2601889431868E-05
(PID.TID 0000.0001) %MON fCoriCos_sd                  =   4.4742416298653E-05
(PID.TID 0000.0001) // CG2D normalisation factor =          0.2454122852291226263129944E-06
(PID.TID 0000.0001) 
 ini_cg2d: sumArea,cg2dTolerance =  5.09904363781794E+14  2.78081767031093E-12
(PID.TID 0000.0001) CONFIG_CHECK: OK
(PID.TID 0000.0001) // =======================================================
(PID.TID 0000.0001) // Model configuration
(PID.TID 0000.0001) // =======================================================
(PID.TID 0000.0001) //
(PID.TID 0000.0001) // "Physical" paramters ( PARM01 in namelist )
(PID.TID 0000.0001) //
(PID.TID 0000.0001) buoyancyRelation = ATMOSPHERIC
(PID.TID 0000.0001) tRef =   /* Reference temperature profile ( oC or oK ) */
(PID.TID 0000.0001)                 2.810890000000000E+02,      /* K =  1 */
(PID.TID 0000.0001)                 2.893210000000000E+02,      /* K =  2 */
(PID.TID 0000.0001)                 3.071910000000000E+02,      /* K =  3 */
(PID.TID 0000.0001)                 3.313770000000000E+02,      /* K =  4 */
(PID.TID 0000.0001)                 4.324130000000000E+02       /* K =  5 */
(PID.TID 0000.0001)     ;
(PID.TID 0000.0001) sRef =   /* Reference salinity profile ( ppt ) */
(PID.TID 0000.0001)     5 @  0.000000000000000E+00              /* K =  1:  5 */
(PID.TID 0000.0001)     ;
(PID.TID 0000.0001) viscAh =   /* Lateral eddy viscosity ( m^2/s ) */
(PID.TID 0000.0001)                 0.000000000000000E+00
(PID.TID 0000.0001)     ;
(PID.TID 0000.0001) viscA4 =   /* Lateral biharmonic viscosity ( m^4/s ) */
(PID.TID 0000.0001)                 0.000000000000000E+00
(PID.TID 0000.0001)     ;
(PID.TID 0000.0001) no_slip_sides =  /* Viscous BCs: No-slip sides */
(PID.TID 0000.0001)                   F
(PID.TID 0000.0001)     ;
(PID.TID 0000.0001) viscAr =   /* Vertical eddy viscosity ( units of r^2/s ) */
(PID.TID 0000.0001)                 0.000000000000000E+00
(PID.TID 0000.0001)     ;
(PID.TID 0000.0001) diffKhT =   /* Laplacian diffusion of heat laterally ( m^2/s ) */
(PID.TID 0000.0001)                 0.000000000000000E+00
(PID.TID 0000.0001)     ;
(PID.TID 0000.0001) diffK4T =   /* Bihaarmonic diffusion of heat laterally ( m^4/s ) */
(PID.TID 0000.0001)                 0.000000000000000E+00
(PID.TID 0000.0001)     ;
(PID.TID 0000.0001) diffKrT =   /* Laplacian diffusion of heat vertically ( m^2/s ) */
(PID.TID 0000.0001)                 0.000000000000000E+00
(PID.TID 0000.0001)     ;
(PID.TID 0000.0001) diffKhS =   /* Laplacian diffusion of salt laterally ( m^2/s ) */
(PID.TID 0000.0001)                 0.000000000000000E+00
(PID.TID 0000.0001)     ;
(PID.TID 0000.0001) diffK4S =   /* Bihaarmonic diffusion of salt laterally ( m^4/s ) */
(PID.TID 0000.0001)                 0.000000000000000E+00
(PID.TID 0000.0001)     ;
(PID.TID 0000.0001) diffKrS =   /* Laplacian diffusion of salt vertically ( m^2/s ) */
(PID.TID 0000.0001)                 0.000000000000000E+00
(PID.TID 0000.0001)     ;
(PID.TID 0000.0001)  Equation of State : eosType = IDEALG
(PID.TID 0000.0001) tAlpha =   /* Linear EOS thermal expansion coefficient ( 1/degree ) */
(PID.TID 0000.0001)                 1.234567000000000E+05
(PID.TID 0000.0001)     ;
(PID.TID 0000.0001) sBeta =   /* Linear EOS haline contraction coefficient ( 1/ppt ) */
(PID.TID 0000.0001)                 1.234567000000000E+05
(PID.TID 0000.0001)     ;
(PID.TID 0000.0001) atm_Rd =  /* gas constant for dry air ( J/kg/K ) */
(PID.TID 0000.0001)                 2.868571428571428E+02
(PID.TID 0000.0001)     ;
(PID.TID 0000.0001) atm_Cp =  /* specific heat (Cp) of dry air ( J/kg/K ) */
(PID.TID 0000.0001)                 1.004000000000000E+03
(PID.TID 0000.0001)     ;
(PID.TID 0000.0001) atm_kappa =  /* kappa (=Rd/Cp ) of dry air */
(PID.TID 0000.0001)                 2.857142857142857E-01
(PID.TID 0000.0001)     ;
(PID.TID 0000.0001) atm_Rq = /* water vap. specific vol. anomaly relative to dry air */
(PID.TID 0000.0001)                 0.000000000000000E+00
(PID.TID 0000.0001)     ;
(PID.TID 0000.0001) atm_Po =  /* standard reference pressure ( Pa ) */
(PID.TID 0000.0001)                 1.000000000000000E+05
(PID.TID 0000.0001)     ;
(PID.TID 0000.0001) integr_GeoPot =  /* select how the geopotential is integrated */
(PID.TID 0000.0001)                       2
(PID.TID 0000.0001)     ;
(PID.TID 0000.0001) selectFindRoSurf=  /* select how Surf.Ref. pressure is defined */
(PID.TID 0000.0001)                       0
(PID.TID 0000.0001)     ;
(PID.TID 0000.0001) rhonil =   /* Reference density ( kg/m^3 ) */
(PID.TID 0000.0001)                 1.000000000000000E+00
(PID.TID 0000.0001)     ;
(PID.TID 0000.0001) rhoConst =   /* Reference density ( kg/m^3 ) */
(PID.TID 0000.0001)                 1.000000000000000E+00
(PID.TID 0000.0001)     ;
(PID.TID 0000.0001) rhoConstFresh =   /* Reference density ( kg/m^3 ) */
(PID.TID 0000.0001)                 1.000000000000000E+03
(PID.TID 0000.0001)     ;
(PID.TID 0000.0001) gravity =   /* Gravitational acceleration ( m/s^2 ) */
(PID.TID 0000.0001)                 9.810000000000000E+00
(PID.TID 0000.0001)     ;
(PID.TID 0000.0001) gBaro =   /* Barotropic gravity ( m/s^2 ) */
(PID.TID 0000.0001)                 9.810000000000000E+00
(PID.TID 0000.0001)     ;
(PID.TID 0000.0001) rotationPeriod =   /* Rotation Period ( s ) */
(PID.TID 0000.0001)                 8.640000000000000E+04
(PID.TID 0000.0001)     ;
(PID.TID 0000.0001) omega =   /* Angular velocity ( rad/s ) */
(PID.TID 0000.0001)                 7.272205216643040E-05
(PID.TID 0000.0001)     ;
(PID.TID 0000.0001) f0 =   /* Reference coriolis parameter ( 1/s ) */
(PID.TID 0000.0001)                 1.000000000000000E-04
(PID.TID 0000.0001)     ;
(PID.TID 0000.0001) beta =   /* Beta ( 1/(m.s) ) */
(PID.TID 0000.0001)                 9.999999999999999E-12
(PID.TID 0000.0001)     ;
(PID.TID 0000.0001) freeSurfFac =   /* Implicit free surface factor */
(PID.TID 0000.0001)                 1.000000000000000E+00
(PID.TID 0000.0001)     ;
(PID.TID 0000.0001) implicitFreeSurface =   /* Implicit free surface on/off flag */
(PID.TID 0000.0001)                   T
(PID.TID 0000.0001)     ;
(PID.TID 0000.0001) rigidLid =   /* Rigid lid on/off flag */
(PID.TID 0000.0001)                   F
(PID.TID 0000.0001)     ;
(PID.TID 0000.0001) implicSurfPress =   /* Surface Pressure implicit factor (0-1)*/
(PID.TID 0000.0001)                 1.000000000000000E+00
(PID.TID 0000.0001)     ;
(PID.TID 0000.0001) implicDiv2Dflow =   /* Barot. Flow Div. implicit factor (0-1)*/
(PID.TID 0000.0001)                 1.000000000000000E+00
(PID.TID 0000.0001)     ;
(PID.TID 0000.0001) exactConserv =   /* Exact Volume Conservation on/off flag*/
(PID.TID 0000.0001)                   T
(PID.TID 0000.0001)     ;
(PID.TID 0000.0001) uniformLin_PhiSurf =   /* use uniform Bo_surf on/off flag*/
(PID.TID 0000.0001)                   T
(PID.TID 0000.0001)     ;
(PID.TID 0000.0001) nonlinFreeSurf =   /* Non-linear Free Surf. options (-1,0,1,2,3)*/
(PID.TID 0000.0001)                       0
(PID.TID 0000.0001)     ;
(PID.TID 0000.0001)      -1,0= Off ; 1,2,3= On, 2=+rescale gU,gV, 3=+update cg2d solv.
(PID.TID 0000.0001) hFacInf =   /* lower threshold for hFac (nonlinFreeSurf only)*/
(PID.TID 0000.0001)                 2.000000000000000E-01
(PID.TID 0000.0001)     ;
(PID.TID 0000.0001) hFacSup =   /* upper threshold for hFac (nonlinFreeSurf only)*/
(PID.TID 0000.0001)                 2.000000000000000E+00
(PID.TID 0000.0001)     ;
(PID.TID 0000.0001) select_rStar =   /* r* Coordinate options (not yet implemented)*/
(PID.TID 0000.0001)                       0
(PID.TID 0000.0001)     ;
(PID.TID 0000.0001) useRealFreshWaterFlux =   /* Real Fresh Water Flux on/off flag*/
(PID.TID 0000.0001)                   F
(PID.TID 0000.0001)     ;
(PID.TID 0000.0001) convertFW2Salt = /* convert F.W. Flux to Salt Flux (-1=use local S)(ppt)*/
(PID.TID 0000.0001)                 3.500000000000000E+01
(PID.TID 0000.0001)     ;
(PID.TID 0000.0001) nonHydrostatic =  /* Non-Hydrostatic on/off flag */
(PID.TID 0000.0001)                   F
(PID.TID 0000.0001)     ;
(PID.TID 0000.0001) momStepping =  /* Momentum equation on/off flag */
(PID.TID 0000.0001)                   T
(PID.TID 0000.0001)     ;
(PID.TID 0000.0001) momAdvection =  /* Momentum advection on/off flag */
(PID.TID 0000.0001)                   T
(PID.TID 0000.0001)     ;
(PID.TID 0000.0001) momViscosity =  /* Momentum viscosity on/off flag */
(PID.TID 0000.0001)                   T
(PID.TID 0000.0001)     ;
(PID.TID 0000.0001) momImplVertAdv =/* Momentum implicit vert. advection on/off*/
(PID.TID 0000.0001)                   F
(PID.TID 0000.0001)     ;
(PID.TID 0000.0001) implicitViscosity = /* Implicit viscosity on/off flag */
(PID.TID 0000.0001)                   F
(PID.TID 0000.0001)     ;
(PID.TID 0000.0001) useCoriolis =  /* Coriolis on/off flag */
(PID.TID 0000.0001)                   T
(PID.TID 0000.0001)     ;
(PID.TID 0000.0001) useCDscheme =  /* CD scheme on/off flag */
(PID.TID 0000.0001)                   F
(PID.TID 0000.0001)     ;
(PID.TID 0000.0001) useJamartWetPoints= /* Coriolis WetPoints method flag */
(PID.TID 0000.0001)                   F
(PID.TID 0000.0001)     ;
(PID.TID 0000.0001) momForcing =  /* Momentum forcing on/off flag */
(PID.TID 0000.0001)                   T
(PID.TID 0000.0001)     ;
(PID.TID 0000.0001) momPressureForcing =  /* Momentum pressure term on/off flag */
(PID.TID 0000.0001)                   T
(PID.TID 0000.0001)     ;
(PID.TID 0000.0001) staggerTimeStep =   /* Stagger time stepping on/off flag */
(PID.TID 0000.0001)                   T
(PID.TID 0000.0001)     ;
(PID.TID 0000.0001) multiDimAdvection =   /* enable/disable Multi-Dim Advection */
(PID.TID 0000.0001)                   T
(PID.TID 0000.0001)     ;
(PID.TID 0000.0001) implicitDiffusion =/* Implicit Diffusion on/off flag */
(PID.TID 0000.0001)                   F
(PID.TID 0000.0001)     ;
(PID.TID 0000.0001) tempStepping =  /* Temperature equation on/off flag */
(PID.TID 0000.0001)                   T
(PID.TID 0000.0001)     ;
(PID.TID 0000.0001) tempAdvection=  /* Temperature advection on/off flag */
(PID.TID 0000.0001)                   T
(PID.TID 0000.0001)     ;
(PID.TID 0000.0001) tempImplVertAdv =/* Temp. implicit vert. advection on/off */
(PID.TID 0000.0001)                   F
(PID.TID 0000.0001)     ;
(PID.TID 0000.0001) tempForcing  =  /* Temperature forcing on/off flag */
(PID.TID 0000.0001)                   T
(PID.TID 0000.0001)     ;
(PID.TID 0000.0001) saltStepping =  /* Salinity equation on/off flag */
(PID.TID 0000.0001)                   T
(PID.TID 0000.0001)     ;
(PID.TID 0000.0001) saltAdvection=  /* Salinity advection on/off flag */
(PID.TID 0000.0001)                   T
(PID.TID 0000.0001)     ;
(PID.TID 0000.0001) saltImplVertAdv =/* Sali. implicit vert. advection on/off */
(PID.TID 0000.0001)                   F
(PID.TID 0000.0001)     ;
(PID.TID 0000.0001) saltForcing  =  /* Salinity forcing on/off flag */
(PID.TID 0000.0001)                   T
(PID.TID 0000.0001)     ;
(PID.TID 0000.0001) //
(PID.TID 0000.0001) // Elliptic solver(s) paramters ( PARM02 in namelist )
(PID.TID 0000.0001) //
(PID.TID 0000.0001) cg2dMaxIters =   /* Upper limit on 2d con. grad iterations  */
(PID.TID 0000.0001)                     200
(PID.TID 0000.0001)     ;
(PID.TID 0000.0001) cg2dChkResFreq =   /* 2d con. grad convergence test frequency */
(PID.TID 0000.0001)                       1
(PID.TID 0000.0001)     ;
(PID.TID 0000.0001) cg2dTargetResidual =   /* 2d con. grad target residual  */
(PID.TID 0000.0001)                 1.000000000000000E-07
(PID.TID 0000.0001)     ;
(PID.TID 0000.0001) //
(PID.TID 0000.0001) // Time stepping paramters ( PARM03 in namelist )
(PID.TID 0000.0001) //
(PID.TID 0000.0001) nIter0 =   /* Base timestep number  */
(PID.TID 0000.0001)                   69120
(PID.TID 0000.0001)     ;
(PID.TID 0000.0001) nTimeSteps =   /* Number of timesteps */
(PID.TID 0000.0001)                      10
(PID.TID 0000.0001)     ;
(PID.TID 0000.0001) deltatTmom =   /* Momentum equation timestep ( s ) */
(PID.TID 0000.0001)                 4.500000000000000E+02
(PID.TID 0000.0001)     ;
(PID.TID 0000.0001) deltaTfreesurf =   /* FreeSurface equation timestep ( s ) */
(PID.TID 0000.0001)                 4.500000000000000E+02
(PID.TID 0000.0001)     ;
(PID.TID 0000.0001) deltatTtracer =   /* Tracer equation timestep ( s ) */
(PID.TID 0000.0001)                 4.500000000000000E+02
(PID.TID 0000.0001)     ;
(PID.TID 0000.0001) deltatTClock  =   /* Model clock timestep ( s ) */
(PID.TID 0000.0001)                 4.500000000000000E+02
(PID.TID 0000.0001)     ;
(PID.TID 0000.0001) cAdjFreq =   /* Convective adjustment interval ( s ) */
(PID.TID 0000.0001)                 0.000000000000000E+00
(PID.TID 0000.0001)     ;
(PID.TID 0000.0001) forcing_In_AB =   /* put T,S Forcing in Adams-Bash. stepping */
(PID.TID 0000.0001)                   F
(PID.TID 0000.0001)     ;
(PID.TID 0000.0001) abeps =   /* Adams-Bashforth stabilizing weight */
(PID.TID 0000.0001)                 1.000000000000000E-01
(PID.TID 0000.0001)     ;
(PID.TID 0000.0001) startTime =   /* Run start time ( s ). */
(PID.TID 0000.0001)                 3.110400000000000E+07
(PID.TID 0000.0001)     ;
(PID.TID 0000.0001) endTime =   /* Integration ending time ( s ). */
(PID.TID 0000.0001)                 3.110850000000000E+07
(PID.TID 0000.0001)     ;
(PID.TID 0000.0001) pChkPtFreq =   /* Permanent restart/checkpoint file interval ( s ). */
(PID.TID 0000.0001)                 2.592000000000000E+06
(PID.TID 0000.0001)     ;
(PID.TID 0000.0001) chkPtFreq =   /* Rolling restart/checkpoint file interval ( s ). */
(PID.TID 0000.0001)                 0.000000000000000E+00
(PID.TID 0000.0001)     ;
(PID.TID 0000.0001) dumpFreq =   /* Model state write out interval ( s ). */
(PID.TID 0000.0001)                 2.592000000000000E+06
(PID.TID 0000.0001)     ;
(PID.TID 0000.0001) externForcingPeriod =   /* forcing period (s) */
(PID.TID 0000.0001)                 0.000000000000000E+00
(PID.TID 0000.0001)     ;
(PID.TID 0000.0001) externForcingCycle =   /* period of the cyle (s). */
(PID.TID 0000.0001)                 0.000000000000000E+00
(PID.TID 0000.0001)     ;
(PID.TID 0000.0001) tauThetaClimRelax =   /* relaxation time scale (s) */
(PID.TID 0000.0001)                 0.000000000000000E+00
(PID.TID 0000.0001)     ;
(PID.TID 0000.0001) tauSaltClimRelax =   /* relaxation time scale (s) */
(PID.TID 0000.0001)                 0.000000000000000E+00
(PID.TID 0000.0001)     ;
(PID.TID 0000.0001) latBandClimRelax =   /* max. Lat. where relaxation */
(PID.TID 0000.0001)                 1.800000000000000E+02
(PID.TID 0000.0001)     ;
(PID.TID 0000.0001) //
(PID.TID 0000.0001) // Gridding paramters ( PARM04 in namelist )
(PID.TID 0000.0001) //
(PID.TID 0000.0001) usingCartesianGrid =   /* Cartesian coordinates flag ( True / False ) */
(PID.TID 0000.0001)                   F
(PID.TID 0000.0001)     ;
(PID.TID 0000.0001) usingSphericalPolarGrid =   /* Spherical coordinates flag ( True / False ) */
(PID.TID 0000.0001)                   T
(PID.TID 0000.0001)     ;
(PID.TID 0000.0001) groundAtK1 =   /* Lower Boundary (ground) at the surface(k=1) ( T / F ) */
(PID.TID 0000.0001)                   T
(PID.TID 0000.0001)     ;
(PID.TID 0000.0001) Ro_SeaLevel =   /* r(1) ( units of r ) */
(PID.TID 0000.0001)                 1.000000000000000E+05
(PID.TID 0000.0001)     ;
(PID.TID 0000.0001) rkFac =   /* minus Vertical index orientation  */
(PID.TID 0000.0001)                 1.000000000000000E+00
(PID.TID 0000.0001)     ;
(PID.TID 0000.0001) horiVertRatio =   /* Ratio on units : Horiz - Vertical */
(PID.TID 0000.0001)                 9.810000000000000E+00
(PID.TID 0000.0001)     ;
(PID.TID 0000.0001) drC =   /* C spacing ( units of r ) */
(PID.TID 0000.0001)                 5.000000000000000E+03,      /* K =  1 */
(PID.TID 0000.0001)                 1.750000000000000E+04,      /* K =  2 */
(PID.TID 0000.0001)                 2.750000000000000E+04,      /* K =  3 */
(PID.TID 0000.0001)                 2.500000000000000E+04,      /* K =  4 */
(PID.TID 0000.0001)                 1.750000000000000E+04       /* K =  5 */
(PID.TID 0000.0001)     ;
(PID.TID 0000.0001) drF =   /* W spacing ( units of r ) */
(PID.TID 0000.0001)                 1.000000000000000E+04,      /* K =  1 */
(PID.TID 0000.0001)                 2.500000000000000E+04,      /* K =  2 */
(PID.TID 0000.0001)                 3.000000000000000E+04,      /* K =  3 */
(PID.TID 0000.0001)                 2.000000000000000E+04,      /* K =  4 */
(PID.TID 0000.0001)                 1.500000000000000E+04       /* K =  5 */
(PID.TID 0000.0001)     ;
(PID.TID 0000.0001) delX =   /* U spacing ( m - cartesian, degrees - spherical ) */
(PID.TID 0000.0001)   128 @  2.812500000000000E+00              /* I =  1:128 */
(PID.TID 0000.0001)     ;
(PID.TID 0000.0001) delY =   /* V spacing ( m - cartesian, degrees - spherical ) */
(PID.TID 0000.0001)    64 @  2.812500000000000E+00              /* J =  1: 64 */
(PID.TID 0000.0001)     ;
(PID.TID 0000.0001) phiMin =    /* South edge (ignored - cartesian, degrees - spherical ) */
(PID.TID 0000.0001)                -9.000000000000000E+01
(PID.TID 0000.0001)     ;
(PID.TID 0000.0001) thetaMin =    /* West edge ( ignored - cartesian, degrees - spherical ) */
(PID.TID 0000.0001)                 0.000000000000000E+00
(PID.TID 0000.0001)     ;
(PID.TID 0000.0001) rSphere =    /* Radius ( ignored - cartesian, m - spherical ) */
(PID.TID 0000.0001)                 6.370000000000000E+06
(PID.TID 0000.0001)     ;
(PID.TID 0000.0001) xcoord =   /* P-point X coord ( m - cartesian, degrees - spherical ) */
(PID.TID 0000.0001)                 1.406250000000000E+00,      /* I =  1 */
(PID.TID 0000.0001)                 4.218750000000000E+00,      /* I =  2 */
(PID.TID 0000.0001)                 7.031250000000000E+00,      /* I =  3 */
(PID.TID 0000.0001)                 9.843750000000000E+00,      /* I =  4 */
(PID.TID 0000.0001)                 1.265625000000000E+01,      /* I =  5 */
(PID.TID 0000.0001)                 1.546875000000000E+01,      /* I =  6 */
(PID.TID 0000.0001)                 1.828125000000000E+01,      /* I =  7 */
(PID.TID 0000.0001)                 2.109375000000000E+01,      /* I =  8 */
(PID.TID 0000.0001)                 2.390625000000000E+01,      /* I =  9 */
(PID.TID 0000.0001)                 2.671875000000000E+01,      /* I = 10 */
(PID.TID 0000.0001)                 2.953125000000000E+01,      /* I = 11 */
(PID.TID 0000.0001)                 3.234375000000000E+01,      /* I = 12 */
(PID.TID 0000.0001)                 3.515625000000000E+01,      /* I = 13 */
(PID.TID 0000.0001)                 3.796875000000000E+01,      /* I = 14 */
(PID.TID 0000.0001)                 4.078125000000000E+01,      /* I = 15 */
(PID.TID 0000.0001)                 4.359375000000000E+01,      /* I = 16 */
(PID.TID 0000.0001)                 4.640625000000000E+01,      /* I = 17 */
(PID.TID 0000.0001)                 4.921875000000000E+01,      /* I = 18 */
(PID.TID 0000.0001)                 5.203125000000000E+01,      /* I = 19 */
(PID.TID 0000.0001)                 5.484375000000000E+01,      /* I = 20 */
(PID.TID 0000.0001)                 5.765625000000000E+01,      /* I = 21 */
(PID.TID 0000.0001)                 6.046875000000000E+01,      /* I = 22 */
(PID.TID 0000.0001)                 6.328125000000000E+01,      /* I = 23 */
(PID.TID 0000.0001)                 6.609375000000000E+01,      /* I = 24 */
(PID.TID 0000.0001)                 6.890625000000000E+01,      /* I = 25 */
(PID.TID 0000.0001)                 7.171875000000000E+01,      /* I = 26 */
(PID.TID 0000.0001)                 7.453125000000000E+01,      /* I = 27 */
(PID.TID 0000.0001)                 7.734375000000000E+01,      /* I = 28 */
(PID.TID 0000.0001)                 8.015625000000000E+01,      /* I = 29 */
(PID.TID 0000.0001)                 8.296875000000000E+01,      /* I = 30 */
(PID.TID 0000.0001)                 8.578125000000000E+01,      /* I = 31 */
(PID.TID 0000.0001)                 8.859375000000000E+01,      /* I = 32 */
(PID.TID 0000.0001)                 9.140625000000000E+01,      /* I = 33 */
(PID.TID 0000.0001)                 9.421875000000000E+01,      /* I = 34 */
(PID.TID 0000.0001)                 9.703125000000000E+01,      /* I = 35 */
(PID.TID 0000.0001)                 9.984375000000000E+01,      /* I = 36 */
(PID.TID 0000.0001)                 1.026562500000000E+02,      /* I = 37 */
(PID.TID 0000.0001)                 1.054687500000000E+02,      /* I = 38 */
(PID.TID 0000.0001)                 1.082812500000000E+02,      /* I = 39 */
(PID.TID 0000.0001)                 1.110937500000000E+02,      /* I = 40 */
(PID.TID 0000.0001)                 1.139062500000000E+02,      /* I = 41 */
(PID.TID 0000.0001)                 1.167187500000000E+02,      /* I = 42 */
(PID.TID 0000.0001)                 1.195312500000000E+02,      /* I = 43 */
(PID.TID 0000.0001)                 1.223437500000000E+02,      /* I = 44 */
(PID.TID 0000.0001)                 1.251562500000000E+02,      /* I = 45 */
(PID.TID 0000.0001)                 1.279687500000000E+02,      /* I = 46 */
(PID.TID 0000.0001)                 1.307812500000000E+02,      /* I = 47 */
(PID.TID 0000.0001)                 1.335937500000000E+02,      /* I = 48 */
(PID.TID 0000.0001)                 1.364062500000000E+02,      /* I = 49 */
(PID.TID 0000.0001)                 1.392187500000000E+02,      /* I = 50 */
(PID.TID 0000.0001)                 1.420312500000000E+02,      /* I = 51 */
(PID.TID 0000.0001)                 1.448437500000000E+02,      /* I = 52 */
(PID.TID 0000.0001)                 1.476562500000000E+02,      /* I = 53 */
(PID.TID 0000.0001)                 1.504687500000000E+02,      /* I = 54 */
(PID.TID 0000.0001)                 1.532812500000000E+02,      /* I = 55 */
(PID.TID 0000.0001)                 1.560937500000000E+02,      /* I = 56 */
(PID.TID 0000.0001)                 1.589062500000000E+02,      /* I = 57 */
(PID.TID 0000.0001)                 1.617187500000000E+02,      /* I = 58 */
(PID.TID 0000.0001)                 1.645312500000000E+02,      /* I = 59 */
(PID.TID 0000.0001)                 1.673437500000000E+02,      /* I = 60 */
(PID.TID 0000.0001)                 1.701562500000000E+02,      /* I = 61 */
(PID.TID 0000.0001)                 1.729687500000000E+02,      /* I = 62 */
(PID.TID 0000.0001)                 1.757812500000000E+02,      /* I = 63 */
(PID.TID 0000.0001)                 1.785937500000000E+02,      /* I = 64 */
(PID.TID 0000.0001)                 1.814062500000000E+02,      /* I = 65 */
(PID.TID 0000.0001)                 1.842187500000000E+02,      /* I = 66 */
(PID.TID 0000.0001)                 1.870312500000000E+02,      /* I = 67 */
(PID.TID 0000.0001)                 1.898437500000000E+02,      /* I = 68 */
(PID.TID 0000.0001)                 1.926562500000000E+02,      /* I = 69 */
(PID.TID 0000.0001)                 1.954687500000000E+02,      /* I = 70 */
(PID.TID 0000.0001)                 1.982812500000000E+02,      /* I = 71 */
(PID.TID 0000.0001)                 2.010937500000000E+02,      /* I = 72 */
(PID.TID 0000.0001)                 2.039062500000000E+02,      /* I = 73 */
(PID.TID 0000.0001)                 2.067187500000000E+02,      /* I = 74 */
(PID.TID 0000.0001)                 2.095312500000000E+02,      /* I = 75 */
(PID.TID 0000.0001)                 2.123437500000000E+02,      /* I = 76 */
(PID.TID 0000.0001)                 2.151562500000000E+02,      /* I = 77 */
(PID.TID 0000.0001)                 2.179687500000000E+02,      /* I = 78 */
(PID.TID 0000.0001)                 2.207812500000000E+02,      /* I = 79 */
(PID.TID 0000.0001)                 2.235937500000000E+02,      /* I = 80 */
(PID.TID 0000.0001)                 2.264062500000000E+02,      /* I = 81 */
(PID.TID 0000.0001)                 2.292187500000000E+02,      /* I = 82 */
(PID.TID 0000.0001)                 2.320312500000000E+02,      /* I = 83 */
(PID.TID 0000.0001)                 2.348437500000000E+02,      /* I = 84 */
(PID.TID 0000.0001)                 2.376562500000000E+02,      /* I = 85 */
(PID.TID 0000.0001)                 2.404687500000000E+02,      /* I = 86 */
(PID.TID 0000.0001)                 2.432812500000000E+02,      /* I = 87 */
(PID.TID 0000.0001)                 2.460937500000000E+02,      /* I = 88 */
(PID.TID 0000.0001)                 2.489062500000000E+02,      /* I = 89 */
(PID.TID 0000.0001)                 2.517187500000000E+02,      /* I = 90 */
(PID.TID 0000.0001)                 2.545312500000000E+02,      /* I = 91 */
(PID.TID 0000.0001)                 2.573437500000000E+02,      /* I = 92 */
(PID.TID 0000.0001)                 2.601562500000000E+02,      /* I = 93 */
(PID.TID 0000.0001)                 2.629687500000000E+02,      /* I = 94 */
(PID.TID 0000.0001)                 2.657812500000000E+02,      /* I = 95 */
(PID.TID 0000.0001)                 2.685937500000000E+02,      /* I = 96 */
(PID.TID 0000.0001)                 2.714062500000000E+02,      /* I = 97 */
(PID.TID 0000.0001)                 2.742187500000000E+02,      /* I = 98 */
(PID.TID 0000.0001)                 2.770312500000000E+02,      /* I = 99 */
(PID.TID 0000.0001)                 2.798437500000000E+02,      /* I =100 */
(PID.TID 0000.0001)                 2.826562500000000E+02,      /* I =101 */
(PID.TID 0000.0001)                 2.854687500000000E+02,      /* I =102 */
(PID.TID 0000.0001)                 2.882812500000000E+02,      /* I =103 */
(PID.TID 0000.0001)                 2.910937500000000E+02,      /* I =104 */
(PID.TID 0000.0001)                 2.939062500000000E+02,      /* I =105 */
(PID.TID 0000.0001)                 2.967187500000000E+02,      /* I =106 */
(PID.TID 0000.0001)                 2.995312500000000E+02,      /* I =107 */
(PID.TID 0000.0001)                 3.023437500000000E+02,      /* I =108 */
(PID.TID 0000.0001)                 3.051562500000000E+02,      /* I =109 */
(PID.TID 0000.0001)                 3.079687500000000E+02,      /* I =110 */
(PID.TID 0000.0001)                 3.107812500000000E+02,      /* I =111 */
(PID.TID 0000.0001)                 3.135937500000000E+02,      /* I =112 */
(PID.TID 0000.0001)                 3.164062500000000E+02,      /* I =113 */
(PID.TID 0000.0001)                 3.192187500000000E+02,      /* I =114 */
(PID.TID 0000.0001)                 3.220312500000000E+02,      /* I =115 */
(PID.TID 0000.0001)                 3.248437500000000E+02,      /* I =116 */
(PID.TID 0000.0001)                 3.276562500000000E+02,      /* I =117 */
(PID.TID 0000.0001)                 3.304687500000000E+02,      /* I =118 */
(PID.TID 0000.0001)                 3.332812500000000E+02,      /* I =119 */
(PID.TID 0000.0001)                 3.360937500000000E+02,      /* I =120 */
(PID.TID 0000.0001)                 3.389062500000000E+02,      /* I =121 */
(PID.TID 0000.0001)                 3.417187500000000E+02,      /* I =122 */
(PID.TID 0000.0001)                 3.445312500000000E+02,      /* I =123 */
(PID.TID 0000.0001)                 3.473437500000000E+02,      /* I =124 */
(PID.TID 0000.0001)                 3.501562500000000E+02,      /* I =125 */
(PID.TID 0000.0001)                 3.529687500000000E+02,      /* I =126 */
(PID.TID 0000.0001)                 3.557812500000000E+02,      /* I =127 */
(PID.TID 0000.0001)                 3.585937500000000E+02       /* I =128 */
(PID.TID 0000.0001)     ;
(PID.TID 0000.0001) ycoord =   /* P-point Y coord ( m - cartesian, degrees - spherical ) */
(PID.TID 0000.0001)                -8.859375000000000E+01,      /* J =  1 */
(PID.TID 0000.0001)                -8.578125000000000E+01,      /* J =  2 */
(PID.TID 0000.0001)                -8.296875000000000E+01,      /* J =  3 */
(PID.TID 0000.0001)                -8.015625000000000E+01,      /* J =  4 */
(PID.TID 0000.0001)                -7.734375000000000E+01,      /* J =  5 */
(PID.TID 0000.0001)                -7.453125000000000E+01,      /* J =  6 */
(PID.TID 0000.0001)                -7.171875000000000E+01,      /* J =  7 */
(PID.TID 0000.0001)                -6.890625000000000E+01,      /* J =  8 */
(PID.TID 0000.0001)                -6.609375000000000E+01,      /* J =  9 */
(PID.TID 0000.0001)                -6.328125000000000E+01,      /* J = 10 */
(PID.TID 0000.0001)                -6.046875000000000E+01,      /* J = 11 */
(PID.TID 0000.0001)                -5.765625000000000E+01,      /* J = 12 */
(PID.TID 0000.0001)                -5.484375000000000E+01,      /* J = 13 */
(PID.TID 0000.0001)                -5.203125000000000E+01,      /* J = 14 */
(PID.TID 0000.0001)                -4.921875000000000E+01,      /* J = 15 */
(PID.TID 0000.0001)                -4.640625000000000E+01,      /* J = 16 */
(PID.TID 0000.0001)                -4.359375000000000E+01,      /* J = 17 */
(PID.TID 0000.0001)                -4.078125000000000E+01,      /* J = 18 */
(PID.TID 0000.0001)                -3.796875000000000E+01,      /* J = 19 */
(PID.TID 0000.0001)                -3.515625000000000E+01,      /* J = 20 */
(PID.TID 0000.0001)                -3.234375000000000E+01,      /* J = 21 */
(PID.TID 0000.0001)                -2.953125000000000E+01,      /* J = 22 */
(PID.TID 0000.0001)                -2.671875000000000E+01,      /* J = 23 */
(PID.TID 0000.0001)                -2.390625000000000E+01,      /* J = 24 */
(PID.TID 0000.0001)                -2.109375000000000E+01,      /* J = 25 */
(PID.TID 0000.0001)                -1.828125000000000E+01,      /* J = 26 */
(PID.TID 0000.0001)                -1.546875000000000E+01,      /* J = 27 */
(PID.TID 0000.0001)                -1.265625000000000E+01,      /* J = 28 */
(PID.TID 0000.0001)                -9.843750000000000E+00,      /* J = 29 */
(PID.TID 0000.0001)                -7.031250000000000E+00,      /* J = 30 */
(PID.TID 0000.0001)                -4.218750000000000E+00,      /* J = 31 */
(PID.TID 0000.0001)                -1.406250000000000E+00,      /* J = 32 */
(PID.TID 0000.0001)                 1.406250000000000E+00,      /* J = 33 */
(PID.TID 0000.0001)                 4.218750000000000E+00,      /* J = 34 */
(PID.TID 0000.0001)                 7.031250000000000E+00,      /* J = 35 */
(PID.TID 0000.0001)                 9.843750000000000E+00,      /* J = 36 */
(PID.TID 0000.0001)                 1.265625000000000E+01,      /* J = 37 */
(PID.TID 0000.0001)                 1.546875000000000E+01,      /* J = 38 */
(PID.TID 0000.0001)                 1.828125000000000E+01,      /* J = 39 */
(PID.TID 0000.0001)                 2.109375000000000E+01,      /* J = 40 */
(PID.TID 0000.0001)                 2.390625000000000E+01,      /* J = 41 */
(PID.TID 0000.0001)                 2.671875000000000E+01,      /* J = 42 */
(PID.TID 0000.0001)                 2.953125000000000E+01,      /* J = 43 */
(PID.TID 0000.0001)                 3.234375000000000E+01,      /* J = 44 */
(PID.TID 0000.0001)                 3.515625000000000E+01,      /* J = 45 */
(PID.TID 0000.0001)                 3.796875000000000E+01,      /* J = 46 */
(PID.TID 0000.0001)                 4.078125000000000E+01,      /* J = 47 */
(PID.TID 0000.0001)                 4.359375000000000E+01,      /* J = 48 */
(PID.TID 0000.0001)                 4.640625000000000E+01,      /* J = 49 */
(PID.TID 0000.0001)                 4.921875000000000E+01,      /* J = 50 */
(PID.TID 0000.0001)                 5.203125000000000E+01,      /* J = 51 */
(PID.TID 0000.0001)                 5.484375000000000E+01,      /* J = 52 */
(PID.TID 0000.0001)                 5.765625000000000E+01,      /* J = 53 */
(PID.TID 0000.0001)                 6.046875000000000E+01,      /* J = 54 */
(PID.TID 0000.0001)                 6.328125000000000E+01,      /* J = 55 */
(PID.TID 0000.0001)                 6.609375000000000E+01,      /* J = 56 */
(PID.TID 0000.0001)                 6.890625000000000E+01,      /* J = 57 */
(PID.TID 0000.0001)                 7.171875000000000E+01,      /* J = 58 */
(PID.TID 0000.0001)                 7.453125000000000E+01,      /* J = 59 */
(PID.TID 0000.0001)                 7.734375000000000E+01,      /* J = 60 */
(PID.TID 0000.0001)                 8.015625000000000E+01,      /* J = 61 */
(PID.TID 0000.0001)                 8.296875000000000E+01,      /* J = 62 */
(PID.TID 0000.0001)                 8.578125000000000E+01,      /* J = 63 */
(PID.TID 0000.0001)                 8.859375000000000E+01       /* J = 64 */
(PID.TID 0000.0001)     ;
(PID.TID 0000.0001) rcoord =   /* P-point R coordinate (  units of r ) */
(PID.TID 0000.0001)                 9.500000000000000E+04,      /* K =  1 */
(PID.TID 0000.0001)                 7.750000000000000E+04,      /* K =  2 */
(PID.TID 0000.0001)                 5.000000000000000E+04,      /* K =  3 */
(PID.TID 0000.0001)                 2.500000000000000E+04,      /* K =  4 */
(PID.TID 0000.0001)                 7.500000000000000E+03       /* K =  5 */
(PID.TID 0000.0001)     ;
(PID.TID 0000.0001) rF =   /* W-Interf. R coordinate (  units of r ) */
(PID.TID 0000.0001)                 1.000000000000000E+05,      /* K =  1 */
(PID.TID 0000.0001)                 9.000000000000000E+04,      /* K =  2 */
(PID.TID 0000.0001)                 6.500000000000000E+04,      /* K =  3 */
(PID.TID 0000.0001)                 3.500000000000000E+04,      /* K =  4 */
(PID.TID 0000.0001)                 1.500000000000000E+04,      /* K =  5 */
(PID.TID 0000.0001)                 0.000000000000000E+00       /* K =  6 */
(PID.TID 0000.0001)     ;
(PID.TID 0000.0001) dxF =  /* dxF(:,1,:,1) ( m - cartesian, degrees - spherical ) */
(PID.TID 0000.0001)   128 @  7.673714381622298E+03              /* I =  1:128 */
(PID.TID 0000.0001)     ;
(PID.TID 0000.0001) dxF =  /* dxF(1,:,1,:) ( m - cartesian, degrees - spherical ) */
(PID.TID 0000.0001)                 7.673714381622298E+03,      /* J =  1 */
(PID.TID 0000.0001)                 2.300265649478360E+04,      /* J =  2 */
(PID.TID 0000.0001)                 3.827618319365421E+04,      /* J =  3 */
(PID.TID 0000.0001)                 5.345749921461356E+04,      /* J =  4 */
(PID.TID 0000.0001)                 6.851003143764105E+04,      /* J =  5 */
(PID.TID 0000.0001)                 8.339751699416523E+04,      /* J =  6 */
(PID.TID 0000.0001)                 9.808409062749070E+04,      /* J =  7 */
(PID.TID 0000.0001)                 1.125343710953429E+05,      /* J =  8 */
(PID.TID 0000.0001)                 1.267135464063795E+05,      /* J =  9 */
(PID.TID 0000.0001)                 1.405874576853274E+05,      /* J = 10 */
(PID.TID 0000.0001)                 1.541226814647045E+05,      /* J = 11 */
(PID.TID 0000.0001)                 1.672866102048804E+05,      /* J = 12 */
(PID.TID 0000.0001)                 1.800475308484964E+05,      /* J = 13 */
(PID.TID 0000.0001)                 1.923747012199971E+05,      /* J = 14 */
(PID.TID 0000.0001)                 2.042384240862251E+05,      /* J = 15 */
(PID.TID 0000.0001)                 2.156101186996563E+05,      /* J = 16 */
(PID.TID 0000.0001)                 2.264623896519241E+05,      /* J = 17 */
(PID.TID 0000.0001)                 2.367690928717576E+05,      /* J = 18 */
(PID.TID 0000.0001)                 2.465053986083400E+05,      /* J = 19 */
(PID.TID 0000.0001)                 2.556478512483520E+05,      /* J = 20 */
(PID.TID 0000.0001)                 2.641744258225996E+05,      /* J = 21 */
(PID.TID 0000.0001)                 2.720645810660936E+05,      /* J = 22 */
(PID.TID 0000.0001)                 2.792993089037566E+05,      /* J = 23 */
(PID.TID 0000.0001)                 2.858611802425402E+05,      /* J = 24 */
(PID.TID 0000.0001)                 2.917343869596373E+05,      /* J = 25 */
(PID.TID 0000.0001)                 2.969047799856343E+05,      /* J = 26 */
(PID.TID 0000.0001)                 3.013599033908587E+05,      /* J = 27 */
(PID.TID 0000.0001)                 3.050890243928044E+05,      /* J = 28 */
(PID.TID 0000.0001)                 3.080831592123453E+05,      /* J = 29 */
(PID.TID 0000.0001)                 3.103350947164461E+05,      /* J = 30 */
(PID.TID 0000.0001)                 3.118394057952310E+05,      /* J = 31 */
(PID.TID 0000.0001)     2 @  3.125924684315491E+05,             /* J = 32: 33 */
(PID.TID 0000.0001)                 3.118394057952310E+05,      /* J = 34 */
(PID.TID 0000.0001)                 3.103350947164461E+05,      /* J = 35 */
(PID.TID 0000.0001)                 3.080831592123453E+05,      /* J = 36 */
(PID.TID 0000.0001)                 3.050890243928044E+05,      /* J = 37 */
(PID.TID 0000.0001)                 3.013599033908587E+05,      /* J = 38 */
(PID.TID 0000.0001)                 2.969047799856343E+05,      /* J = 39 */
(PID.TID 0000.0001)                 2.917343869596373E+05,      /* J = 40 */
(PID.TID 0000.0001)                 2.858611802425402E+05,      /* J = 41 */
(PID.TID 0000.0001)                 2.792993089037566E+05,      /* J = 42 */
(PID.TID 0000.0001)                 2.720645810660936E+05,      /* J = 43 */
(PID.TID 0000.0001)                 2.641744258225996E+05,      /* J = 44 */
(PID.TID 0000.0001)                 2.556478512483520E+05,      /* J = 45 */
(PID.TID 0000.0001)                 2.465053986083400E+05,      /* J = 46 */
(PID.TID 0000.0001)                 2.367690928717576E+05,      /* J = 47 */
(PID.TID 0000.0001)                 2.264623896519241E+05,      /* J = 48 */
(PID.TID 0000.0001)                 2.156101186996563E+05,      /* J = 49 */
(PID.TID 0000.0001)                 2.042384240862251E+05,      /* J = 50 */
(PID.TID 0000.0001)                 1.923747012199971E+05,      /* J = 51 */
(PID.TID 0000.0001)                 1.800475308484964E+05,      /* J = 52 */
(PID.TID 0000.0001)                 1.672866102048804E+05,      /* J = 53 */
(PID.TID 0000.0001)                 1.541226814647045E+05,      /* J = 54 */
(PID.TID 0000.0001)                 1.405874576853274E+05,      /* J = 55 */
(PID.TID 0000.0001)                 1.267135464063795E+05,      /* J = 56 */
(PID.TID 0000.0001)                 1.125343710953429E+05,      /* J = 57 */
(PID.TID 0000.0001)                 9.808409062749070E+04,      /* J = 58 */
(PID.TID 0000.0001)                 8.339751699416523E+04,      /* J = 59 */
(PID.TID 0000.0001)                 6.851003143764105E+04,      /* J = 60 */
(PID.TID 0000.0001)                 5.345749921461356E+04,      /* J = 61 */
(PID.TID 0000.0001)                 3.827618319365421E+04,      /* J = 62 */
(PID.TID 0000.0001)                 2.300265649478360E+04,      /* J = 63 */
(PID.TID 0000.0001)                 7.673714381622298E+03       /* J = 64 */
(PID.TID 0000.0001)     ;
(PID.TID 0000.0001) dyF =  /* dyF(:,1,:,1) ( m - cartesian, degrees - spherical ) */
(PID.TID 0000.0001)   128 @  3.126866438026091E+05              /* I =  1:128 */
(PID.TID 0000.0001)     ;
(PID.TID 0000.0001) dyF =  /* dyF(1,:,1,:) ( m - cartesian, degrees - spherical ) */
(PID.TID 0000.0001)    64 @  3.126866438026091E+05              /* J =  1: 64 */
(PID.TID 0000.0001)     ;
(PID.TID 0000.0001) dxG =  /* dxG(:,1,:,1) ( m - cartesian, degrees - spherical ) */
(PID.TID 0000.0001)   128 @  0.000000000000000E+00              /* I =  1:128 */
(PID.TID 0000.0001)     ;
(PID.TID 0000.0001) dxG =  /* dxG(1,:,1,:) ( m - cartesian, degrees - spherical ) */
(PID.TID 0000.0001)                 0.000000000000000E+00,      /* J =  1 */
(PID.TID 0000.0001)                 1.534280640463982E+04,      /* J =  2 */
(PID.TID 0000.0001)                 3.064865064477965E+04,      /* J =  3 */
(PID.TID 0000.0001)                 4.588065960101153E+04,      /* J =  4 */
(PID.TID 0000.0001)                 6.100213802959342E+04,      /* J =  5 */
(PID.TID 0000.0001)                 7.597665696450579E+04,      /* J =  6 */
(PID.TID 0000.0001)                 9.076814147802140E+04,      /* J =  7 */
(PID.TID 0000.0001)                 1.053409575883663E+05,      /* J =  8 */
(PID.TID 0000.0001)                 1.196599981051027E+05,      /* J =  9 */
(PID.TID 0000.0001)                 1.336907672054259E+05,      /* J = 10 */
(PID.TID 0000.0001)                 1.473994635376230E+05,      /* J = 11 */
(PID.TID 0000.0001)                 1.607530616514898E+05,      /* J = 12 */
(PID.TID 0000.0001)                 1.737193915595329E+05,      /* J = 13 */
(PID.TID 0000.0001)                 1.862672162372875E+05,      /* J = 14 */
(PID.TID 0000.0001)                 1.983663068760452E+05,      /* J = 15 */
(PID.TID 0000.0001)                 2.099875157067021E+05,      /* J = 16 */
(PID.TID 0000.0001)                 2.211028462192875E+05,      /* J = 17 */
(PID.TID 0000.0001)                 2.316855206090085E+05,      /* J = 18 */
(PID.TID 0000.0001)                 2.417100442863275E+05,      /* J = 19 */
(PID.TID 0000.0001)                 2.511522672956614E+05,      /* J = 20 */
(PID.TID 0000.0001)                 2.599894424947395E+05,      /* J = 21 */
(PID.TID 0000.0001)                 2.682002803544621E+05,      /* J = 22 */
(PID.TID 0000.0001)                 2.757650002472408E+05,      /* J = 23 */
(PID.TID 0000.0001)                 2.826653781002625E+05,      /* J = 24 */
(PID.TID 0000.0001)                 2.888847902988777E+05,      /* J = 25 */
(PID.TID 0000.0001)                 2.944082537343438E+05,      /* J = 26 */
(PID.TID 0000.0001)                 2.992224618994464E+05,      /* J = 27 */
(PID.TID 0000.0001)                 3.033158169450409E+05,      /* J = 28 */
(PID.TID 0000.0001)                 3.066784576202870E+05,      /* J = 29 */
(PID.TID 0000.0001)                 3.093022830292655E+05,      /* J = 30 */
(PID.TID 0000.0001)                 3.111809721467461E+05,      /* J = 31 */
(PID.TID 0000.0001)                 3.123099990460912E+05,      /* J = 32 */
(PID.TID 0000.0001)                 3.126866438026091E+05,      /* J = 33 */
(PID.TID 0000.0001)                 3.123099990460912E+05,      /* J = 34 */
(PID.TID 0000.0001)                 3.111809721467461E+05,      /* J = 35 */
(PID.TID 0000.0001)                 3.093022830292655E+05,      /* J = 36 */
(PID.TID 0000.0001)                 3.066784576202870E+05,      /* J = 37 */
(PID.TID 0000.0001)                 3.033158169450409E+05,      /* J = 38 */
(PID.TID 0000.0001)                 2.992224618994464E+05,      /* J = 39 */
(PID.TID 0000.0001)                 2.944082537343438E+05,      /* J = 40 */
(PID.TID 0000.0001)                 2.888847902988777E+05,      /* J = 41 */
(PID.TID 0000.0001)                 2.826653781002625E+05,      /* J = 42 */
(PID.TID 0000.0001)                 2.757650002472408E+05,      /* J = 43 */
(PID.TID 0000.0001)                 2.682002803544621E+05,      /* J = 44 */
(PID.TID 0000.0001)                 2.599894424947395E+05,      /* J = 45 */
(PID.TID 0000.0001)                 2.511522672956614E+05,      /* J = 46 */
(PID.TID 0000.0001)                 2.417100442863275E+05,      /* J = 47 */
(PID.TID 0000.0001)                 2.316855206090085E+05,      /* J = 48 */
(PID.TID 0000.0001)                 2.211028462192875E+05,      /* J = 49 */
(PID.TID 0000.0001)                 2.099875157067021E+05,      /* J = 50 */
(PID.TID 0000.0001)                 1.983663068760452E+05,      /* J = 51 */
(PID.TID 0000.0001)                 1.862672162372875E+05,      /* J = 52 */
(PID.TID 0000.0001)                 1.737193915595329E+05,      /* J = 53 */
(PID.TID 0000.0001)                 1.607530616514898E+05,      /* J = 54 */
(PID.TID 0000.0001)                 1.473994635376230E+05,      /* J = 55 */
(PID.TID 0000.0001)                 1.336907672054259E+05,      /* J = 56 */
(PID.TID 0000.0001)                 1.196599981051027E+05,      /* J = 57 */
(PID.TID 0000.0001)                 1.053409575883663E+05,      /* J = 58 */
(PID.TID 0000.0001)                 9.076814147802140E+04,      /* J = 59 */
(PID.TID 0000.0001)                 7.597665696450579E+04,      /* J = 60 */
(PID.TID 0000.0001)                 6.100213802959342E+04,      /* J = 61 */
(PID.TID 0000.0001)                 4.588065960101153E+04,      /* J = 62 */
(PID.TID 0000.0001)                 3.064865064477965E+04,      /* J = 63 */
(PID.TID 0000.0001)                 1.534280640463982E+04       /* J = 64 */
(PID.TID 0000.0001)     ;
(PID.TID 0000.0001) dyG =  /* dyG(:,1,:,1) ( m - cartesian, degrees - spherical ) */
(PID.TID 0000.0001)   128 @  3.126866438026091E+05              /* I =  1:128 */
(PID.TID 0000.0001)     ;
(PID.TID 0000.0001) dyG =  /* dyG(1,:,1,:) ( m - cartesian, degrees - spherical ) */
(PID.TID 0000.0001)    64 @  3.126866438026091E+05              /* J =  1: 64 */
(PID.TID 0000.0001)     ;
(PID.TID 0000.0001) dxC =  /* dxC(:,1,:,1) ( m - cartesian, degrees - spherical ) */
(PID.TID 0000.0001)   128 @  7.673714381622298E+03              /* I =  1:128 */
(PID.TID 0000.0001)     ;
(PID.TID 0000.0001) dxC =  /* dxC(1,:,1,:) ( m - cartesian, degrees - spherical ) */
(PID.TID 0000.0001)                 7.673714381622298E+03,      /* J =  1 */
(PID.TID 0000.0001)                 2.300265649478360E+04,      /* J =  2 */
(PID.TID 0000.0001)                 3.827618319365421E+04,      /* J =  3 */
(PID.TID 0000.0001)                 5.345749921461356E+04,      /* J =  4 */
(PID.TID 0000.0001)                 6.851003143764105E+04,      /* J =  5 */
(PID.TID 0000.0001)                 8.339751699416523E+04,      /* J =  6 */
(PID.TID 0000.0001)                 9.808409062749070E+04,      /* J =  7 */
(PID.TID 0000.0001)                 1.125343710953429E+05,      /* J =  8 */
(PID.TID 0000.0001)                 1.267135464063795E+05,      /* J =  9 */
(PID.TID 0000.0001)                 1.405874576853274E+05,      /* J = 10 */
(PID.TID 0000.0001)                 1.541226814647045E+05,      /* J = 11 */
(PID.TID 0000.0001)                 1.672866102048804E+05,      /* J = 12 */
(PID.TID 0000.0001)                 1.800475308484964E+05,      /* J = 13 */
(PID.TID 0000.0001)                 1.923747012199971E+05,      /* J = 14 */
(PID.TID 0000.0001)                 2.042384240862251E+05,      /* J = 15 */
(PID.TID 0000.0001)                 2.156101186996563E+05,      /* J = 16 */
(PID.TID 0000.0001)                 2.264623896519241E+05,      /* J = 17 */
(PID.TID 0000.0001)                 2.367690928717576E+05,      /* J = 18 */
(PID.TID 0000.0001)                 2.465053986083400E+05,      /* J = 19 */
(PID.TID 0000.0001)                 2.556478512483520E+05,      /* J = 20 */
(PID.TID 0000.0001)                 2.641744258225996E+05,      /* J = 21 */
(PID.TID 0000.0001)                 2.720645810660936E+05,      /* J = 22 */
(PID.TID 0000.0001)                 2.792993089037566E+05,      /* J = 23 */
(PID.TID 0000.0001)                 2.858611802425402E+05,      /* J = 24 */
(PID.TID 0000.0001)                 2.917343869596373E+05,      /* J = 25 */
(PID.TID 0000.0001)                 2.969047799856343E+05,      /* J = 26 */
(PID.TID 0000.0001)                 3.013599033908587E+05,      /* J = 27 */
(PID.TID 0000.0001)                 3.050890243928044E+05,      /* J = 28 */
(PID.TID 0000.0001)                 3.080831592123453E+05,      /* J = 29 */
(PID.TID 0000.0001)                 3.103350947164461E+05,      /* J = 30 */
(PID.TID 0000.0001)                 3.118394057952310E+05,      /* J = 31 */
(PID.TID 0000.0001)     2 @  3.125924684315491E+05,             /* J = 32: 33 */
(PID.TID 0000.0001)                 3.118394057952310E+05,      /* J = 34 */
(PID.TID 0000.0001)                 3.103350947164461E+05,      /* J = 35 */
(PID.TID 0000.0001)                 3.080831592123453E+05,      /* J = 36 */
(PID.TID 0000.0001)                 3.050890243928044E+05,      /* J = 37 */
(PID.TID 0000.0001)                 3.013599033908587E+05,      /* J = 38 */
(PID.TID 0000.0001)                 2.969047799856343E+05,      /* J = 39 */
(PID.TID 0000.0001)                 2.917343869596373E+05,      /* J = 40 */
(PID.TID 0000.0001)                 2.858611802425402E+05,      /* J = 41 */
(PID.TID 0000.0001)                 2.792993089037566E+05,      /* J = 42 */
(PID.TID 0000.0001)                 2.720645810660936E+05,      /* J = 43 */
(PID.TID 0000.0001)                 2.641744258225996E+05,      /* J = 44 */
(PID.TID 0000.0001)                 2.556478512483520E+05,      /* J = 45 */
(PID.TID 0000.0001)                 2.465053986083400E+05,      /* J = 46 */
(PID.TID 0000.0001)                 2.367690928717576E+05,      /* J = 47 */
(PID.TID 0000.0001)                 2.264623896519241E+05,      /* J = 48 */
(PID.TID 0000.0001)                 2.156101186996563E+05,      /* J = 49 */
(PID.TID 0000.0001)                 2.042384240862251E+05,      /* J = 50 */
(PID.TID 0000.0001)                 1.923747012199971E+05,      /* J = 51 */
(PID.TID 0000.0001)                 1.800475308484964E+05,      /* J = 52 */
(PID.TID 0000.0001)                 1.672866102048804E+05,      /* J = 53 */
(PID.TID 0000.0001)                 1.541226814647045E+05,      /* J = 54 */
(PID.TID 0000.0001)                 1.405874576853274E+05,      /* J = 55 */
(PID.TID 0000.0001)                 1.267135464063795E+05,      /* J = 56 */
(PID.TID 0000.0001)                 1.125343710953429E+05,      /* J = 57 */
(PID.TID 0000.0001)                 9.808409062749070E+04,      /* J = 58 */
(PID.TID 0000.0001)                 8.339751699416523E+04,      /* J = 59 */
(PID.TID 0000.0001)                 6.851003143764105E+04,      /* J = 60 */
(PID.TID 0000.0001)                 5.345749921461356E+04,      /* J = 61 */
(PID.TID 0000.0001)                 3.827618319365421E+04,      /* J = 62 */
(PID.TID 0000.0001)                 2.300265649478360E+04,      /* J = 63 */
(PID.TID 0000.0001)                 7.673714381622298E+03       /* J = 64 */
(PID.TID 0000.0001)     ;
(PID.TID 0000.0001) dyC =  /* dyC(:,1,:,1) ( m - cartesian, degrees - spherical ) */
(PID.TID 0000.0001)   128 @  3.126866438026091E+05              /* I =  1:128 */
(PID.TID 0000.0001)     ;
(PID.TID 0000.0001) dyC =  /* dyC(1,:,1,:) ( m - cartesian, degrees - spherical ) */
(PID.TID 0000.0001)    64 @  3.126866438026091E+05              /* J =  1: 64 */
(PID.TID 0000.0001)     ;
(PID.TID 0000.0001) dxV =  /* dxV(:,1,:,1) ( m - cartesian, degrees - spherical ) */
(PID.TID 0000.0001)   128 @  0.000000000000000E+00              /* I =  1:128 */
(PID.TID 0000.0001)     ;
(PID.TID 0000.0001) dxV =  /* dxV(1,:,1,:) ( m - cartesian, degrees - spherical ) */
(PID.TID 0000.0001)                 0.000000000000000E+00,      /* J =  1 */
(PID.TID 0000.0001)                 1.534280640463982E+04,      /* J =  2 */
(PID.TID 0000.0001)                 3.064865064477965E+04,      /* J =  3 */
(PID.TID 0000.0001)                 4.588065960101153E+04,      /* J =  4 */
(PID.TID 0000.0001)                 6.100213802959342E+04,      /* J =  5 */
(PID.TID 0000.0001)                 7.597665696450579E+04,      /* J =  6 */
(PID.TID 0000.0001)                 9.076814147802140E+04,      /* J =  7 */
(PID.TID 0000.0001)                 1.053409575883663E+05,      /* J =  8 */
(PID.TID 0000.0001)                 1.196599981051027E+05,      /* J =  9 */
(PID.TID 0000.0001)                 1.336907672054259E+05,      /* J = 10 */
(PID.TID 0000.0001)                 1.473994635376230E+05,      /* J = 11 */
(PID.TID 0000.0001)                 1.607530616514898E+05,      /* J = 12 */
(PID.TID 0000.0001)                 1.737193915595329E+05,      /* J = 13 */
(PID.TID 0000.0001)                 1.862672162372875E+05,      /* J = 14 */
(PID.TID 0000.0001)                 1.983663068760452E+05,      /* J = 15 */
(PID.TID 0000.0001)                 2.099875157067021E+05,      /* J = 16 */
(PID.TID 0000.0001)                 2.211028462192875E+05,      /* J = 17 */
(PID.TID 0000.0001)                 2.316855206090085E+05,      /* J = 18 */
(PID.TID 0000.0001)                 2.417100442863275E+05,      /* J = 19 */
(PID.TID 0000.0001)                 2.511522672956614E+05,      /* J = 20 */
(PID.TID 0000.0001)                 2.599894424947395E+05,      /* J = 21 */
(PID.TID 0000.0001)                 2.682002803544621E+05,      /* J = 22 */
(PID.TID 0000.0001)                 2.757650002472408E+05,      /* J = 23 */
(PID.TID 0000.0001)                 2.826653781002625E+05,      /* J = 24 */
(PID.TID 0000.0001)                 2.888847902988777E+05,      /* J = 25 */
(PID.TID 0000.0001)                 2.944082537343438E+05,      /* J = 26 */
(PID.TID 0000.0001)                 2.992224618994464E+05,      /* J = 27 */
(PID.TID 0000.0001)                 3.033158169450409E+05,      /* J = 28 */
(PID.TID 0000.0001)                 3.066784576202870E+05,      /* J = 29 */
(PID.TID 0000.0001)                 3.093022830292655E+05,      /* J = 30 */
(PID.TID 0000.0001)                 3.111809721467461E+05,      /* J = 31 */
(PID.TID 0000.0001)                 3.123099990460912E+05,      /* J = 32 */
(PID.TID 0000.0001)                 3.126866438026091E+05,      /* J = 33 */
(PID.TID 0000.0001)                 3.123099990460912E+05,      /* J = 34 */
(PID.TID 0000.0001)                 3.111809721467461E+05,      /* J = 35 */
(PID.TID 0000.0001)                 3.093022830292655E+05,      /* J = 36 */
(PID.TID 0000.0001)                 3.066784576202870E+05,      /* J = 37 */
(PID.TID 0000.0001)                 3.033158169450409E+05,      /* J = 38 */
(PID.TID 0000.0001)                 2.992224618994464E+05,      /* J = 39 */
(PID.TID 0000.0001)                 2.944082537343438E+05,      /* J = 40 */
(PID.TID 0000.0001)                 2.888847902988777E+05,      /* J = 41 */
(PID.TID 0000.0001)                 2.826653781002625E+05,      /* J = 42 */
(PID.TID 0000.0001)                 2.757650002472408E+05,      /* J = 43 */
(PID.TID 0000.0001)                 2.682002803544621E+05,      /* J = 44 */
(PID.TID 0000.0001)                 2.599894424947395E+05,      /* J = 45 */
(PID.TID 0000.0001)                 2.511522672956614E+05,      /* J = 46 */
(PID.TID 0000.0001)                 2.417100442863275E+05,      /* J = 47 */
(PID.TID 0000.0001)                 2.316855206090085E+05,      /* J = 48 */
(PID.TID 0000.0001)                 2.211028462192875E+05,      /* J = 49 */
(PID.TID 0000.0001)                 2.099875157067021E+05,      /* J = 50 */
(PID.TID 0000.0001)                 1.983663068760452E+05,      /* J = 51 */
(PID.TID 0000.0001)                 1.862672162372875E+05,      /* J = 52 */
(PID.TID 0000.0001)                 1.737193915595329E+05,      /* J = 53 */
(PID.TID 0000.0001)                 1.607530616514898E+05,      /* J = 54 */
(PID.TID 0000.0001)                 1.473994635376230E+05,      /* J = 55 */
(PID.TID 0000.0001)                 1.336907672054259E+05,      /* J = 56 */
(PID.TID 0000.0001)                 1.196599981051027E+05,      /* J = 57 */
(PID.TID 0000.0001)                 1.053409575883663E+05,      /* J = 58 */
(PID.TID 0000.0001)                 9.076814147802140E+04,      /* J = 59 */
(PID.TID 0000.0001)                 7.597665696450579E+04,      /* J = 60 */
(PID.TID 0000.0001)                 6.100213802959342E+04,      /* J = 61 */
(PID.TID 0000.0001)                 4.588065960101153E+04,      /* J = 62 */
(PID.TID 0000.0001)                 3.064865064477965E+04,      /* J = 63 */
(PID.TID 0000.0001)                 1.534280640463982E+04       /* J = 64 */
(PID.TID 0000.0001)     ;
(PID.TID 0000.0001) dyU =  /* dyU(:,1,:,1) ( m - cartesian, degrees - spherical ) */
(PID.TID 0000.0001)   128 @  3.126866438026091E+05              /* I =  1:128 */
(PID.TID 0000.0001)     ;
(PID.TID 0000.0001) dyU =  /* dyU(1,:,1,:) ( m - cartesian, degrees - spherical ) */
(PID.TID 0000.0001)    64 @  3.126866438026091E+05              /* J =  1: 64 */
(PID.TID 0000.0001)     ;
(PID.TID 0000.0001) rA =  /* rA(:,1,:,1) ( m - cartesian, degrees - spherical ) */
(PID.TID 0000.0001)   128 @  2.399227099019018E+09              /* I =  1:128 */
(PID.TID 0000.0001)     ;
(PID.TID 0000.0001) rA =  /* rA(1,:,1,:) ( m - cartesian, degrees - spherical ) */
(PID.TID 0000.0001)                 2.399227099019018E+09,      /* J =  1 */
(PID.TID 0000.0001)                 7.191901348828021E+09,      /* J =  2 */
(PID.TID 0000.0001)                 1.196724967835163E+10,      /* J =  3 */
(PID.TID 0000.0001)                 1.671376785519291E+10,      /* J =  4 */
(PID.TID 0000.0001)                 2.142002110131773E+10,      /* J =  5 */
(PID.TID 0000.0001)                 2.607467164043702E+10,      /* J =  6 */
(PID.TID 0000.0001)                 3.066650601170339E+10,      /* J =  7 */
(PID.TID 0000.0001)                 3.518446208391876E+10,      /* J =  8 */
(PID.TID 0000.0001)                 3.961765570517892E+10,      /* J =  9 */
(PID.TID 0000.0001)                 4.395540692374851E+10,      /* J = 10 */
(PID.TID 0000.0001)                 4.818726571700002E+10,      /* J = 11 */
(PID.TID 0000.0001)                 5.230303716643325E+10,      /* J = 12 */
(PID.TID 0000.0001)                 5.629280601812737E+10,      /* J = 13 */
(PID.TID 0000.0001)                 6.014696056945654E+10,      /* J = 14 */
(PID.TID 0000.0001)                 6.385621582452226E+10,      /* J = 15 */
(PID.TID 0000.0001)                 6.741163586252304E+10,      /* J = 16 */
(PID.TID 0000.0001)                 7.080465536516855E+10,      /* J = 17 */
(PID.TID 0000.0001)                 7.402710025128447E+10,      /* J = 18 */
(PID.TID 0000.0001)                 7.707120736888655E+10,      /* J = 19 */
(PID.TID 0000.0001)                 7.992964319729686E+10,      /* J = 20 */
(PID.TID 0000.0001)                 8.259552151423448E+10,      /* J = 21 */
(PID.TID 0000.0001)                 8.506241998533156E+10,      /* J = 22 */
(PID.TID 0000.0001)                 8.732439563609563E+10,      /* J = 23 */
(PID.TID 0000.0001)                 8.937599916905870E+10,      /* J = 24 */
(PID.TID 0000.0001)                 9.121228809161061E+10,      /* J = 25 */
(PID.TID 0000.0001)                 9.282883862289702E+10,      /* J = 26 */
(PID.TID 0000.0001)                 9.422175635109479E+10,      /* J = 27 */
(PID.TID 0000.0001)                 9.538768561539166E+10,      /* J = 28 */
(PID.TID 0000.0001)                 9.632381759006653E+10,      /* J = 29 */
(PID.TID 0000.0001)                 9.702789705119698E+10,      /* J = 30 */
(PID.TID 0000.0001)                 9.749822780969104E+10,      /* J = 31 */
(PID.TID 0000.0001)     2 @  9.773367679755542E+10,             /* J = 32: 33 */
(PID.TID 0000.0001)                 9.749822780969106E+10,      /* J = 34 */
(PID.TID 0000.0001)                 9.702789705119699E+10,      /* J = 35 */
(PID.TID 0000.0001)                 9.632381759006651E+10,      /* J = 36 */
(PID.TID 0000.0001)                 9.538768561539162E+10,      /* J = 37 */
(PID.TID 0000.0001)                 9.422175635109473E+10,      /* J = 38 */
(PID.TID 0000.0001)                 9.282883862289699E+10,      /* J = 39 */
(PID.TID 0000.0001)                 9.121228809161069E+10,      /* J = 40 */
(PID.TID 0000.0001)                 8.937599916905876E+10,      /* J = 41 */
(PID.TID 0000.0001)                 8.732439563609566E+10,      /* J = 42 */
(PID.TID 0000.0001)                 8.506241998533160E+10,      /* J = 43 */
(PID.TID 0000.0001)                 8.259552151423447E+10,      /* J = 44 */
(PID.TID 0000.0001)                 7.992964319729677E+10,      /* J = 45 */
(PID.TID 0000.0001)                 7.707120736888655E+10,      /* J = 46 */
(PID.TID 0000.0001)                 7.402710025128453E+10,      /* J = 47 */
(PID.TID 0000.0001)                 7.080465536516850E+10,      /* J = 48 */
(PID.TID 0000.0001)                 6.741163586252296E+10,      /* J = 49 */
(PID.TID 0000.0001)                 6.385621582452237E+10,      /* J = 50 */
(PID.TID 0000.0001)                 6.014696056945670E+10,      /* J = 51 */
(PID.TID 0000.0001)                 5.629280601812745E+10,      /* J = 52 */
(PID.TID 0000.0001)                 5.230303716643337E+10,      /* J = 53 */
(PID.TID 0000.0001)                 4.818726571700008E+10,      /* J = 54 */
(PID.TID 0000.0001)                 4.395540692374858E+10,      /* J = 55 */
(PID.TID 0000.0001)                 3.961765570517902E+10,      /* J = 56 */
(PID.TID 0000.0001)                 3.518446208391881E+10,      /* J = 57 */
(PID.TID 0000.0001)                 3.066650601170354E+10,      /* J = 58 */
(PID.TID 0000.0001)                 2.607467164043715E+10,      /* J = 59 */
(PID.TID 0000.0001)                 2.142002110131773E+10,      /* J = 60 */
(PID.TID 0000.0001)                 1.671376785519297E+10,      /* J = 61 */
(PID.TID 0000.0001)                 1.196724967835179E+10,      /* J = 62 */
(PID.TID 0000.0001)                 7.191901348828131E+09,      /* J = 63 */
(PID.TID 0000.0001)                 2.399227099019054E+09       /* J = 64 */
(PID.TID 0000.0001)     ;
(PID.TID 0000.0001) rAw =  /* rAw(:,1,:,1) ( m - cartesian, degrees - spherical ) */
(PID.TID 0000.0001)   128 @  2.399227099019018E+09              /* I =  1:128 */
(PID.TID 0000.0001)     ;
(PID.TID 0000.0001) rAw =  /* rAw(1,:,1,:) ( m - cartesian, degrees - spherical ) */
(PID.TID 0000.0001)                 2.399227099019018E+09,      /* J =  1 */
(PID.TID 0000.0001)                 7.191901348828021E+09,      /* J =  2 */
(PID.TID 0000.0001)                 1.196724967835163E+10,      /* J =  3 */
(PID.TID 0000.0001)                 1.671376785519291E+10,      /* J =  4 */
(PID.TID 0000.0001)                 2.142002110131773E+10,      /* J =  5 */
(PID.TID 0000.0001)                 2.607467164043702E+10,      /* J =  6 */
(PID.TID 0000.0001)                 3.066650601170339E+10,      /* J =  7 */
(PID.TID 0000.0001)                 3.518446208391876E+10,      /* J =  8 */
(PID.TID 0000.0001)                 3.961765570517892E+10,      /* J =  9 */
(PID.TID 0000.0001)                 4.395540692374851E+10,      /* J = 10 */
(PID.TID 0000.0001)                 4.818726571700002E+10,      /* J = 11 */
(PID.TID 0000.0001)                 5.230303716643325E+10,      /* J = 12 */
(PID.TID 0000.0001)                 5.629280601812737E+10,      /* J = 13 */
(PID.TID 0000.0001)                 6.014696056945654E+10,      /* J = 14 */
(PID.TID 0000.0001)                 6.385621582452226E+10,      /* J = 15 */
(PID.TID 0000.0001)                 6.741163586252304E+10,      /* J = 16 */
(PID.TID 0000.0001)                 7.080465536516855E+10,      /* J = 17 */
(PID.TID 0000.0001)                 7.402710025128447E+10,      /* J = 18 */
(PID.TID 0000.0001)                 7.707120736888655E+10,      /* J = 19 */
(PID.TID 0000.0001)                 7.992964319729686E+10,      /* J = 20 */
(PID.TID 0000.0001)                 8.259552151423448E+10,      /* J = 21 */
(PID.TID 0000.0001)                 8.506241998533156E+10,      /* J = 22 */
(PID.TID 0000.0001)                 8.732439563609563E+10,      /* J = 23 */
(PID.TID 0000.0001)                 8.937599916905870E+10,      /* J = 24 */
(PID.TID 0000.0001)                 9.121228809161061E+10,      /* J = 25 */
(PID.TID 0000.0001)                 9.282883862289702E+10,      /* J = 26 */
(PID.TID 0000.0001)                 9.422175635109479E+10,      /* J = 27 */
(PID.TID 0000.0001)                 9.538768561539166E+10,      /* J = 28 */
(PID.TID 0000.0001)                 9.632381759006653E+10,      /* J = 29 */
(PID.TID 0000.0001)                 9.702789705119698E+10,      /* J = 30 */
(PID.TID 0000.0001)                 9.749822780969104E+10,      /* J = 31 */
(PID.TID 0000.0001)     2 @  9.773367679755542E+10,             /* J = 32: 33 */
(PID.TID 0000.0001)                 9.749822780969106E+10,      /* J = 34 */
(PID.TID 0000.0001)                 9.702789705119699E+10,      /* J = 35 */
(PID.TID 0000.0001)                 9.632381759006651E+10,      /* J = 36 */
(PID.TID 0000.0001)                 9.538768561539162E+10,      /* J = 37 */
(PID.TID 0000.0001)                 9.422175635109473E+10,      /* J = 38 */
(PID.TID 0000.0001)                 9.282883862289699E+10,      /* J = 39 */
(PID.TID 0000.0001)                 9.121228809161069E+10,      /* J = 40 */
(PID.TID 0000.0001)                 8.937599916905876E+10,      /* J = 41 */
(PID.TID 0000.0001)                 8.732439563609566E+10,      /* J = 42 */
(PID.TID 0000.0001)                 8.506241998533160E+10,      /* J = 43 */
(PID.TID 0000.0001)                 8.259552151423447E+10,      /* J = 44 */
(PID.TID 0000.0001)                 7.992964319729677E+10,      /* J = 45 */
(PID.TID 0000.0001)                 7.707120736888655E+10,      /* J = 46 */
(PID.TID 0000.0001)                 7.402710025128453E+10,      /* J = 47 */
(PID.TID 0000.0001)                 7.080465536516850E+10,      /* J = 48 */
(PID.TID 0000.0001)                 6.741163586252296E+10,      /* J = 49 */
(PID.TID 0000.0001)                 6.385621582452237E+10,      /* J = 50 */
(PID.TID 0000.0001)                 6.014696056945670E+10,      /* J = 51 */
(PID.TID 0000.0001)                 5.629280601812745E+10,      /* J = 52 */
(PID.TID 0000.0001)                 5.230303716643337E+10,      /* J = 53 */
(PID.TID 0000.0001)                 4.818726571700008E+10,      /* J = 54 */
(PID.TID 0000.0001)                 4.395540692374858E+10,      /* J = 55 */
(PID.TID 0000.0001)                 3.961765570517902E+10,      /* J = 56 */
(PID.TID 0000.0001)                 3.518446208391881E+10,      /* J = 57 */
(PID.TID 0000.0001)                 3.066650601170354E+10,      /* J = 58 */
(PID.TID 0000.0001)                 2.607467164043715E+10,      /* J = 59 */
(PID.TID 0000.0001)                 2.142002110131773E+10,      /* J = 60 */
(PID.TID 0000.0001)                 1.671376785519297E+10,      /* J = 61 */
(PID.TID 0000.0001)                 1.196724967835179E+10,      /* J = 62 */
(PID.TID 0000.0001)                 7.191901348828131E+09,      /* J = 63 */
(PID.TID 0000.0001)                 2.399227099019054E+09       /* J = 64 */
(PID.TID 0000.0001)     ;
(PID.TID 0000.0001) rAs =  /* rAs(:,1,:,1) ( m - cartesian, degrees - spherical ) */
(PID.TID 0000.0001)   128 @  0.000000000000000E+00              /* I =  1:128 */
(PID.TID 0000.0001)     ;
(PID.TID 0000.0001) rAs =  /* rAs(1,:,1,:) ( m - cartesian, degrees - spherical ) */
(PID.TID 0000.0001)                 0.000000000000000E+00,      /* J =  1 */
(PID.TID 0000.0001)                 4.797008993346535E+09,      /* J =  2 */
(PID.TID 0000.0001)                 9.582461571859753E+09,      /* J =  3 */
(PID.TID 0000.0001)                 1.434482916112179E+10,      /* J =  4 */
(PID.TID 0000.0001)                 1.907263880047602E+10,      /* J =  5 */
(PID.TID 0000.0001)                 2.375450078239419E+10,      /* J =  6 */
(PID.TID 0000.0001)                 2.837913609127885E+10,      /* J =  7 */
(PID.TID 0000.0001)                 3.293540357560104E+10,      /* J =  8 */
(PID.TID 0000.0001)                 3.741232678790869E+10,      /* J =  9 */
(PID.TID 0000.0001)                 4.179912042805186E+10,      /* J = 10 */
(PID.TID 0000.0001)                 4.608521632591322E+10,      /* J = 11 */
(PID.TID 0000.0001)                 5.026028890105708E+10,      /* J = 12 */
(PID.TID 0000.0001)                 5.431428003795676E+10,      /* J = 13 */
(PID.TID 0000.0001)                 5.823742331687631E+10,      /* J = 14 */
(PID.TID 0000.0001)                 6.202026754202970E+10,      /* J = 15 */
(PID.TID 0000.0001)                 6.565369951034013E+10,      /* J = 16 */
(PID.TID 0000.0001)                 6.912896596594563E+10,      /* J = 17 */
(PID.TID 0000.0001)                 7.243769468755643E+10,      /* J = 18 */
(PID.TID 0000.0001)                 7.557191465787257E+10,      /* J = 19 */
(PID.TID 0000.0001)                 7.852407526645963E+10,      /* J = 20 */
(PID.TID 0000.0001)                 8.128706449983357E+10,      /* J = 21 */
(PID.TID 0000.0001)                 8.385422607492099E+10,      /* J = 22 */
(PID.TID 0000.0001)                 8.621937547463150E+10,      /* J = 23 */
(PID.TID 0000.0001)                 8.837681484689815E+10,      /* J = 24 */
(PID.TID 0000.0001)                 9.032134673130380E+10,      /* J = 25 */
(PID.TID 0000.0001)                 9.204828658021814E+10,      /* J = 26 */
(PID.TID 0000.0001)                 9.355347404428311E+10,      /* J = 27 */
(PID.TID 0000.0001)                 9.483328299505893E+10,      /* J = 28 */
(PID.TID 0000.0001)                 9.588463026068498E+10,      /* J = 29 */
(PID.TID 0000.0001)                 9.670498305351135E+10,      /* J = 30 */
(PID.TID 0000.0001)                 9.729236507180571E+10,      /* J = 31 */
(PID.TID 0000.0001)                 9.764536126083737E+10,      /* J = 32 */
(PID.TID 0000.0001)                 9.776312122186816E+10,      /* J = 33 */
(PID.TID 0000.0001)                 9.764536126083739E+10,      /* J = 34 */
(PID.TID 0000.0001)                 9.729236507180573E+10,      /* J = 35 */
(PID.TID 0000.0001)                 9.670498305351135E+10,      /* J = 36 */
(PID.TID 0000.0001)                 9.588463026068500E+10,      /* J = 37 */
(PID.TID 0000.0001)                 9.483328299505898E+10,      /* J = 38 */
(PID.TID 0000.0001)                 9.355347404428320E+10,      /* J = 39 */
(PID.TID 0000.0001)                 9.204828658021820E+10,      /* J = 40 */
(PID.TID 0000.0001)                 9.032134673130377E+10,      /* J = 41 */
(PID.TID 0000.0001)                 8.837681484689807E+10,      /* J = 42 */
(PID.TID 0000.0001)                 8.621937547463145E+10,      /* J = 43 */
(PID.TID 0000.0001)                 8.385422607492096E+10,      /* J = 44 */
(PID.TID 0000.0001)                 8.128706449983362E+10,      /* J = 45 */
(PID.TID 0000.0001)                 7.852407526645972E+10,      /* J = 46 */
(PID.TID 0000.0001)                 7.557191465787259E+10,      /* J = 47 */
(PID.TID 0000.0001)                 7.243769468755630E+10,      /* J = 48 */
(PID.TID 0000.0001)                 6.912896596594548E+10,      /* J = 49 */
(PID.TID 0000.0001)                 6.565369951033997E+10,      /* J = 50 */
(PID.TID 0000.0001)                 6.202026754202954E+10,      /* J = 51 */
(PID.TID 0000.0001)                 5.823742331687636E+10,      /* J = 52 */
(PID.TID 0000.0001)                 5.431428003795686E+10,      /* J = 53 */
(PID.TID 0000.0001)                 5.026028890105701E+10,      /* J = 54 */
(PID.TID 0000.0001)                 4.608521632591317E+10,      /* J = 55 */
(PID.TID 0000.0001)                 4.179912042805193E+10,      /* J = 56 */
(PID.TID 0000.0001)                 3.741232678790874E+10,      /* J = 57 */
(PID.TID 0000.0001)                 3.293540357560111E+10,      /* J = 58 */
(PID.TID 0000.0001)                 2.837913609127888E+10,      /* J = 59 */
(PID.TID 0000.0001)                 2.375450078239418E+10,      /* J = 60 */
(PID.TID 0000.0001)                 1.907263880047598E+10,      /* J = 61 */
(PID.TID 0000.0001)                 1.434482916112167E+10,      /* J = 62 */
(PID.TID 0000.0001)                 9.582461571859699E+09,      /* J = 63 */
(PID.TID 0000.0001)                 4.797008993346580E+09       /* J = 64 */
(PID.TID 0000.0001)     ;
(PID.TID 0000.0001) 
(PID.TID 0000.0001)  MDSREADFIELD: opening global file: pickup.0000069120
(PID.TID 0000.0001)  MDSREADFIELD: opening global file: pickup.0000069120
(PID.TID 0000.0001)  MDSREADFIELD: opening global file: pickup.0000069120
(PID.TID 0000.0001)  MDSREADFIELD: opening global file: pickup.0000069120
(PID.TID 0000.0001)  MDSREADFIELD: opening global file: pickup.0000069120
(PID.TID 0000.0001)  MDSREADFIELD: opening global file: pickup.0000069120
(PID.TID 0000.0001)  MDSREADFIELD: opening global file: pickup.0000069120
(PID.TID 0000.0001)  MDSREADFIELD: opening global file: pickup.0000069120
(PID.TID 0000.0001)  MDSREADFIELD: opening global file: pickup.0000069120
(PID.TID 0000.0001)  MDSREADFIELD: opening global file: pickup.0000069120
(PID.TID 0000.0001)  MDSREADFIELD: opening global file: pickup.0000069120
(PID.TID 0000.0001)  MDSREADFIELD: opening global file: pickup.0000069120
(PID.TID 0000.0001)  MDSREADFIELD: opening global file: pickup.0000069120
(PID.TID 0000.0001) // =======================================================
(PID.TID 0000.0001) // Model current state
(PID.TID 0000.0001) // =======================================================
(PID.TID 0000.0001) 
(PID.TID 0000.0001) // =======================================================
(PID.TID 0000.0001) // Begin MONITOR dynamic field statistics
(PID.TID 0000.0001) // =======================================================
(PID.TID 0000.0001) %MON time_tsnumber                =                 69120
(PID.TID 0000.0001) %MON time_secondsf                =   3.1104000000000E+07
(PID.TID 0000.0001) %MON dynstat_eta_max              =   3.4750754274515E+03
(PID.TID 0000.0001) %MON dynstat_eta_min              =  -3.7317805477659E+03
(PID.TID 0000.0001) %MON dynstat_eta_mean             =  -1.6429705663131E-13
(PID.TID 0000.0001) %MON dynstat_eta_sd               =   8.3738887983634E+02
(PID.TID 0000.0001) %MON dynstat_eta_del2             =   1.0686550925982E+02
(PID.TID 0000.0001) %MON dynstat_uvel_max             =   7.7412749670304E+01
(PID.TID 0000.0001) %MON dynstat_uvel_min             =  -3.7805381226225E+01
(PID.TID 0000.0001) %MON dynstat_uvel_mean            =   5.3007911849180E+00
(PID.TID 0000.0001) %MON dynstat_uvel_sd              =   1.3832589528692E+01
(PID.TID 0000.0001) %MON dynstat_uvel_del2            =   1.2218387017141E+00
(PID.TID 0000.0001) %MON dynstat_vvel_max             =   5.1663396306264E+01
(PID.TID 0000.0001) %MON dynstat_vvel_min             =  -4.2237079887553E+01
(PID.TID 0000.0001) %MON dynstat_vvel_mean            =  -2.0678669456016E-02
(PID.TID 0000.0001) %MON dynstat_vvel_sd              =   7.4569774862895E+00
(PID.TID 0000.0001) %MON dynstat_vvel_del2            =   8.9332276025057E-01
(PID.TID 0000.0001) %MON dynstat_wvel_max             =   1.4333591007797E+00
(PID.TID 0000.0001) %MON dynstat_wvel_min             =  -2.0114213380737E+00
(PID.TID 0000.0001) %MON dynstat_wvel_mean            =   1.2790757021574E-05
(PID.TID 0000.0001) %MON dynstat_wvel_sd              =   1.3373963431650E-01
(PID.TID 0000.0001) %MON dynstat_wvel_del2            =   3.7748368060929E-02
(PID.TID 0000.0001) %MON dynstat_theta_max            =   4.8944388755771E+02
(PID.TID 0000.0001) %MON dynstat_theta_min            =   2.4134881839865E+02
(PID.TID 0000.0001) %MON dynstat_theta_mean           =   3.3105896333445E+02
(PID.TID 0000.0001) %MON dynstat_theta_sd             =   4.7101471411210E+01
(PID.TID 0000.0001) %MON dynstat_theta_del2           =   6.3112549064372E-01
(PID.TID 0000.0001) %MON dynstat_salt_max             =   1.8097241399737E+01
(PID.TID 0000.0001) %MON dynstat_salt_min             =  -6.7989458269668E-01
(PID.TID 0000.0001) %MON dynstat_salt_mean            =   2.3301435991999E+00
(PID.TID 0000.0001) %MON dynstat_salt_sd              =   3.2822928285671E+00
(PID.TID 0000.0001) %MON dynstat_salt_del2            =   1.0838107008753E-01
(PID.TID 0000.0001) %MON advcfl_uvel_max              =   1.5755572917478E+00
(PID.TID 0000.0001) %MON advcfl_vvel_max              =   7.4350883859609E-02
(PID.TID 0000.0001) %MON advcfl_wvel_max              =   5.1722262979039E-02
(PID.TID 0000.0001) %MON advcfl_W_hf_max              =   1.8102792042664E-01
(PID.TID 0000.0001) %MON pe_b_mean                    =   3.6259975712575E+00
(PID.TID 0000.0001) %MON ke_max                       =   3.0460371200988E+03
(PID.TID 0000.0001) %MON ke_mean                      =   1.3652456032773E+02
(PID.TID 0000.0001) %MON ke_vol                       =   4.9304391457656E+19
(PID.TID 0000.0001) %MON vort_r_min                   =  -1.8609739948478E-04
(PID.TID 0000.0001) %MON vort_r_max                   =   2.0886891625201E-04
(PID.TID 0000.0001) %MON vort_a_mean                  =  -3.9336365756406E-07
(PID.TID 0000.0001) %MON vort_a_sd                    =   8.8969197087941E-05
(PID.TID 0000.0001) %MON vort_p_mean                  =  -3.9918847309487E-07
(PID.TID 0000.0001) %MON vort_p_sd                    =   9.2039596789093E-05
(PID.TID 0000.0001) %MON surfExpan_theta_mean         =  -5.7060368597503E-03
(PID.TID 0000.0001) %MON surfExpan_salt_mean          =   2.1144535967910E-06
(PID.TID 0000.0001) %MON surfExpan_Heat_mean          =  -2.5111206948931E-01
(PID.TID 0000.0001) %MON En_Budget_T2PE_mean          =   1.9098383172385E+00
(PID.TID 0000.0001) // =======================================================
(PID.TID 0000.0001) // End MONITOR dynamic field statistics
(PID.TID 0000.0001) // =======================================================
(PID.TID 0000.0001)  MDSREADFIELD: opening global file: salb.jan.ft.bin
(PID.TID 0000.0001)  MDSREADFIELD: opening global file: stheta.jan.ft.bin
(PID.TID 0000.0001)  MDSREADFIELD: opening global file: smoist.jan.ft.bin
 cg2d: Sum(rhs),rhsMax =  -5.03635355642018E-10  3.95552810242001E+02
(PID.TID 0000.0001)                    cg2d_init_res =    4.24557530453356E+03
(PID.TID 0000.0001)                       cg2d_iters =   162
(PID.TID 0000.0001)                         cg2d_res =    1.96777170300236E-12
(PID.TID 0000.0001) // =======================================================
(PID.TID 0000.0001) // Begin MONITOR dynamic field statistics
(PID.TID 0000.0001) // =======================================================
(PID.TID 0000.0001) %MON time_tsnumber                =                 69121
(PID.TID 0000.0001) %MON time_secondsf                =   3.1104450000000E+07
(PID.TID 0000.0001) %MON dynstat_eta_max              =   3.4739079591633E+03
(PID.TID 0000.0001) %MON dynstat_eta_min              =  -3.7295122703489E+03
(PID.TID 0000.0001) %MON dynstat_eta_mean             =   4.8731863978102E-13
(PID.TID 0000.0001) %MON dynstat_eta_sd               =   8.3707088708958E+02
(PID.TID 0000.0001) %MON dynstat_eta_del2             =   1.0685765128274E+02
(PID.TID 0000.0001) %MON dynstat_uvel_max             =   7.7537926091746E+01
(PID.TID 0000.0001) %MON dynstat_uvel_min             =  -3.7783667731657E+01
(PID.TID 0000.0001) %MON dynstat_uvel_mean            =   5.3008862151142E+00
(PID.TID 0000.0001) %MON dynstat_uvel_sd              =   1.3832672263362E+01
(PID.TID 0000.0001) %MON dynstat_uvel_del2            =   1.2216783952375E+00
(PID.TID 0000.0001) %MON dynstat_vvel_max             =   5.1666657134757E+01
(PID.TID 0000.0001) %MON dynstat_vvel_min             =  -4.2219449264715E+01
(PID.TID 0000.0001) %MON dynstat_vvel_mean            =  -2.1003303813703E-02
(PID.TID 0000.0001) %MON dynstat_vvel_sd              =   7.4586201152240E+00
(PID.TID 0000.0001) %MON dynstat_vvel_del2            =   8.9326680375752E-01
(PID.TID 0000.0001) %MON dynstat_wvel_max             =   1.4391790141803E+00
(PID.TID 0000.0001) %MON dynstat_wvel_min             =  -2.0148556964952E+00
(PID.TID 0000.0001) %MON dynstat_wvel_mean            =   1.2720448946354E-05
(PID.TID 0000.0001) %MON dynstat_wvel_sd              =   1.3370485483832E-01
(PID.TID 0000.0001) %MON dynstat_wvel_del2            =   3.7737080946396E-02
(PID.TID 0000.0001) %MON dynstat_theta_max            =   4.8944786825658E+02
(PID.TID 0000.0001) %MON dynstat_theta_min            =   2.4134474037138E+02
(PID.TID 0000.0001) %MON dynstat_theta_mean           =   3.3105813771445E+02
(PID.TID 0000.0001) %MON dynstat_theta_sd             =   4.7102179097023E+01
(PID.TID 0000.0001) %MON dynstat_theta_del2           =   6.3090843489637E-01
(PID.TID 0000.0001) %MON dynstat_salt_max             =   1.8074329050682E+01
(PID.TID 0000.0001) %MON dynstat_salt_min             =  -6.7924900925683E-01
(PID.TID 0000.0001) %MON dynstat_salt_mean            =   2.3299951092656E+00
(PID.TID 0000.0001) %MON dynstat_salt_sd              =   3.2818789306198E+00
(PID.TID 0000.0001) %MON dynstat_salt_del2            =   1.0832455256971E-01
(PID.TID 0000.0001) %MON advcfl_uvel_max              =   1.5751203107927E+00
(PID.TID 0000.0001) %MON advcfl_vvel_max              =   7.4355576649822E-02
(PID.TID 0000.0001) %MON advcfl_wvel_max              =   5.1810575052735E-02
(PID.TID 0000.0001) %MON advcfl_W_hf_max              =   1.8133701268457E-01
(PID.TID 0000.0001) %MON pe_b_mean                    =   3.6232441981822E+00
(PID.TID 0000.0001) %MON ke_max                       =   3.0557616321239E+03
(PID.TID 0000.0001) %MON ke_mean                      =   1.3653834534515E+02
(PID.TID 0000.0001) %MON ke_vol                       =   4.9304391457656E+19
(PID.TID 0000.0001) %MON vort_r_min                   =  -1.8541431936102E-04
(PID.TID 0000.0001) %MON vort_r_max                   =   2.0914742413260E-04
(PID.TID 0000.0001) %MON vort_a_mean                  =  -3.9335110260705E-07
(PID.TID 0000.0001) %MON vort_a_sd                    =   8.8970001727143E-05
(PID.TID 0000.0001) %MON vort_p_mean                  =  -3.9917573222768E-07
(PID.TID 0000.0001) %MON vort_p_sd                    =   9.2040584463243E-05
(PID.TID 0000.0001) %MON surfExpan_theta_mean         =  -5.6394447032734E-03
(PID.TID 0000.0001) %MON surfExpan_salt_mean          =   3.2212695343757E-05
(PID.TID 0000.0001) %MON surfExpan_Heat_mean          =  -2.4547755822878E-01
(PID.TID 0000.0001) %MON En_Budget_T2PE_mean          =   1.9103464171421E+00
(PID.TID 0000.0001) // =======================================================
(PID.TID 0000.0001) // End MONITOR dynamic field statistics
(PID.TID 0000.0001) // =======================================================
 cg2d: Sum(rhs),rhsMax =  -3.54401397117954E-10  3.95742051344440E+02
(PID.TID 0000.0001)                    cg2d_init_res =    4.24791247355652E+03
(PID.TID 0000.0001)                       cg2d_iters =   162
(PID.TID 0000.0001)                         cg2d_res =    1.97248616292829E-12
(PID.TID 0000.0001) // =======================================================
(PID.TID 0000.0001) // Begin MONITOR dynamic field statistics
(PID.TID 0000.0001) // =======================================================
(PID.TID 0000.0001) %MON time_tsnumber                =                 69122
(PID.TID 0000.0001) %MON time_secondsf                =   3.1104900000000E+07
(PID.TID 0000.0001) %MON dynstat_eta_max              =   3.4725239479897E+03
(PID.TID 0000.0001) %MON dynstat_eta_min              =  -3.7272455637296E+03
(PID.TID 0000.0001) %MON dynstat_eta_mean             =   1.7131443680609E-13
(PID.TID 0000.0001) %MON dynstat_eta_sd               =   8.3675313573434E+02
(PID.TID 0000.0001) %MON dynstat_eta_del2             =   1.0685261379665E+02
(PID.TID 0000.0001) %MON dynstat_uvel_max             =   7.7658351091351E+01
(PID.TID 0000.0001) %MON dynstat_uvel_min             =  -3.7757720133194E+01
(PID.TID 0000.0001) %MON dynstat_uvel_mean            =   5.3009750644135E+00
(PID.TID 0000.0001) %MON dynstat_uvel_sd              =   1.3832739655883E+01
(PID.TID 0000.0001) %MON dynstat_uvel_del2            =   1.2215726370431E+00
(PID.TID 0000.0001) %MON dynstat_vvel_max             =   5.1663194545851E+01
(PID.TID 0000.0001) %MON dynstat_vvel_min             =  -4.2198683648842E+01
(PID.TID 0000.0001) %MON dynstat_vvel_mean            =  -2.1282957383781E-02
(PID.TID 0000.0001) %MON dynstat_vvel_sd              =   7.4602442917535E+00
(PID.TID 0000.0001) %MON dynstat_vvel_del2            =   8.9322348094823E-01
(PID.TID 0000.0001) %MON dynstat_wvel_max             =   1.4447636911904E+00
(PID.TID 0000.0001) %MON dynstat_wvel_min             =  -2.0178418553978E+00
(PID.TID 0000.0001) %MON dynstat_wvel_mean            =   1.2627926575282E-05
(PID.TID 0000.0001) %MON dynstat_wvel_sd              =   1.3366844331207E-01
(PID.TID 0000.0001) %MON dynstat_wvel_del2            =   3.7726929986905E-02
(PID.TID 0000.0001) %MON dynstat_theta_max            =   4.8945172793574E+02
(PID.TID 0000.0001) %MON dynstat_theta_min            =   2.4134060361244E+02
(PID.TID 0000.0001) %MON dynstat_theta_mean           =   3.3105729467634E+02
(PID.TID 0000.0001) %MON dynstat_theta_sd             =   4.7102888140458E+01
(PID.TID 0000.0001) %MON dynstat_theta_del2           =   6.3071090698806E-01
(PID.TID 0000.0001) %MON dynstat_salt_max             =   1.8052367544313E+01
(PID.TID 0000.0001) %MON dynstat_salt_min             =  -6.7808476468013E-01
(PID.TID 0000.0001) %MON dynstat_salt_mean            =   2.3298571749942E+00
(PID.TID 0000.0001) %MON dynstat_salt_sd              =   3.2814856148316E+00
(PID.TID 0000.0001) %MON dynstat_salt_del2            =   1.0827707976466E-01
(PID.TID 0000.0001) %MON advcfl_uvel_max              =   1.5746361054203E+00
(PID.TID 0000.0001) %MON advcfl_vvel_max              =   7.4350593498036E-02
(PID.TID 0000.0001) %MON advcfl_wvel_max              =   5.1887361995942E-02
(PID.TID 0000.0001) %MON advcfl_W_hf_max              =   1.8160576698580E-01
(PID.TID 0000.0001) %MON pe_b_mean                    =   3.6204939598030E+00
(PID.TID 0000.0001) %MON ke_max                       =   3.0651510084188E+03
(PID.TID 0000.0001) %MON ke_mean                      =   1.3655175246029E+02
(PID.TID 0000.0001) %MON ke_vol                       =   4.9304391457656E+19
(PID.TID 0000.0001) %MON vort_r_min                   =  -1.8570054536388E-04
(PID.TID 0000.0001) %MON vort_r_max                   =   2.0941767396298E-04
(PID.TID 0000.0001) %MON vort_a_mean                  =  -3.9333863144279E-07
(PID.TID 0000.0001) %MON vort_a_sd                    =   8.8970773527501E-05
(PID.TID 0000.0001) %MON vort_p_mean                  =  -3.9916307639402E-07
(PID.TID 0000.0001) %MON vort_p_sd                    =   9.2041513897852E-05
(PID.TID 0000.0001) %MON surfExpan_theta_mean         =  -5.5736847499843E-03
(PID.TID 0000.0001) %MON surfExpan_salt_mean          =   6.1882145764382E-05
(PID.TID 0000.0001) %MON surfExpan_Heat_mean          =  -2.4025062625242E-01
(PID.TID 0000.0001) %MON En_Budget_T2PE_mean          =   1.9111629457895E+00
(PID.TID 0000.0001) // =======================================================
(PID.TID 0000.0001) // End MONITOR dynamic field statistics
(PID.TID 0000.0001) // =======================================================
 cg2d: Sum(rhs),rhsMax =  -2.87465606874093E-10  3.95919814928906E+02
(PID.TID 0000.0001)                    cg2d_init_res =    4.25043303031244E+03
(PID.TID 0000.0001)                       cg2d_iters =   162
(PID.TID 0000.0001)                         cg2d_res =    1.97383815732785E-12
(PID.TID 0000.0001) // =======================================================
(PID.TID 0000.0001) // Begin MONITOR dynamic field statistics
(PID.TID 0000.0001) // =======================================================
(PID.TID 0000.0001) %MON time_tsnumber                =                 69123
(PID.TID 0000.0001) %MON time_secondsf                =   3.1105350000000E+07
(PID.TID 0000.0001) %MON dynstat_eta_max              =   3.4709268067090E+03
(PID.TID 0000.0001) %MON dynstat_eta_min              =  -3.7249892728785E+03
(PID.TID 0000.0001) %MON dynstat_eta_mean             =   3.1178863113589E-13
(PID.TID 0000.0001) %MON dynstat_eta_sd               =   8.3643488774240E+02
(PID.TID 0000.0001) %MON dynstat_eta_del2             =   1.0685102466362E+02
(PID.TID 0000.0001) %MON dynstat_uvel_max             =   7.7773982216659E+01
(PID.TID 0000.0001) %MON dynstat_uvel_min             =  -3.7730747405423E+01
(PID.TID 0000.0001) %MON dynstat_uvel_mean            =   5.3010638111055E+00
(PID.TID 0000.0001) %MON dynstat_uvel_sd              =   1.3832808728454E+01
(PID.TID 0000.0001) %MON dynstat_uvel_del2            =   1.2214849603832E+00
(PID.TID 0000.0001) %MON dynstat_vvel_max             =   5.1652992752197E+01
(PID.TID 0000.0001) %MON dynstat_vvel_min             =  -4.2174808131558E+01
(PID.TID 0000.0001) %MON dynstat_vvel_mean            =  -2.1517444811124E-02
(PID.TID 0000.0001) %MON dynstat_vvel_sd              =   7.4618683023626E+00
(PID.TID 0000.0001) %MON dynstat_vvel_del2            =   8.9321711629299E-01
(PID.TID 0000.0001) %MON dynstat_wvel_max             =   1.4484344459860E+00
(PID.TID 0000.0001) %MON dynstat_wvel_min             =  -2.0203377379432E+00
(PID.TID 0000.0001) %MON dynstat_wvel_mean            =   1.2567854570541E-05
(PID.TID 0000.0001) %MON dynstat_wvel_sd              =   1.3362976668885E-01
(PID.TID 0000.0001) %MON dynstat_wvel_del2            =   3.7714091235902E-02
(PID.TID 0000.0001) %MON dynstat_theta_max            =   4.8945551543944E+02
(PID.TID 0000.0001) %MON dynstat_theta_min            =   2.4133627931752E+02
(PID.TID 0000.0001) %MON dynstat_theta_mean           =   3.3105644491630E+02
(PID.TID 0000.0001) %MON dynstat_theta_sd             =   4.7103596876299E+01
(PID.TID 0000.0001) %MON dynstat_theta_del2           =   6.3053161163840E-01
(PID.TID 0000.0001) %MON dynstat_salt_max             =   1.8031293607503E+01
(PID.TID 0000.0001) %MON dynstat_salt_min             =  -6.7637809864314E-01
(PID.TID 0000.0001) %MON dynstat_salt_mean            =   2.3297257060269E+00
(PID.TID 0000.0001) %MON dynstat_salt_sd              =   3.2811114476630E+00
(PID.TID 0000.0001) %MON dynstat_salt_del2            =   1.0823946329411E-01
(PID.TID 0000.0001) %MON advcfl_uvel_max              =   1.5740952404768E+00
(PID.TID 0000.0001) %MON advcfl_vvel_max              =   7.4335911684037E-02
(PID.TID 0000.0001) %MON advcfl_wvel_max              =   5.1951541832825E-02
(PID.TID 0000.0001) %MON advcfl_W_hf_max              =   1.8183039641489E-01
(PID.TID 0000.0001) %MON pe_b_mean                    =   3.6177404695118E+00
(PID.TID 0000.0001) %MON ke_max                       =   3.0742053311604E+03
(PID.TID 0000.0001) %MON ke_mean                      =   1.3656518262901E+02
(PID.TID 0000.0001) %MON ke_vol                       =   4.9304391457656E+19
(PID.TID 0000.0001) %MON vort_r_min                   =  -1.8603952685868E-04
(PID.TID 0000.0001) %MON vort_r_max                   =   2.0968527714435E-04
(PID.TID 0000.0001) %MON vort_a_mean                  =  -3.9332625064810E-07
(PID.TID 0000.0001) %MON vort_a_sd                    =   8.8971547035553E-05
(PID.TID 0000.0001) %MON vort_p_mean                  =  -3.9915051226809E-07
(PID.TID 0000.0001) %MON vort_p_sd                    =   9.2042437658161E-05
(PID.TID 0000.0001) %MON surfExpan_theta_mean         =  -5.5174956188641E-03
(PID.TID 0000.0001) %MON surfExpan_salt_mean          =   8.9818677943641E-05
(PID.TID 0000.0001) %MON surfExpan_Heat_mean          =  -2.3537262609652E-01
(PID.TID 0000.0001) %MON En_Budget_T2PE_mean          =   1.9115867813788E+00
(PID.TID 0000.0001) // =======================================================
(PID.TID 0000.0001) // End MONITOR dynamic field statistics
(PID.TID 0000.0001) // =======================================================
 cg2d: Sum(rhs),rhsMax =  -8.31192892292165E-11  3.96089425675583E+02
(PID.TID 0000.0001)                    cg2d_init_res =    4.25315690494993E+03
(PID.TID 0000.0001)                       cg2d_iters =   162
(PID.TID 0000.0001)                         cg2d_res =    1.97283511775087E-12
(PID.TID 0000.0001) // =======================================================
(PID.TID 0000.0001) // Begin MONITOR dynamic field statistics
(PID.TID 0000.0001) // =======================================================
(PID.TID 0000.0001) %MON time_tsnumber                =                 69124
(PID.TID 0000.0001) %MON time_secondsf                =   3.1105800000000E+07
(PID.TID 0000.0001) %MON dynstat_eta_max              =   3.4691365013792E+03
(PID.TID 0000.0001) %MON dynstat_eta_min              =  -3.7227424428180E+03
(PID.TID 0000.0001) %MON dynstat_eta_mean             =   8.0329489902018E-13
(PID.TID 0000.0001) %MON dynstat_eta_sd               =   8.3611486047012E+02
(PID.TID 0000.0001) %MON dynstat_eta_del2             =   1.0685513157657E+02
(PID.TID 0000.0001) %MON dynstat_uvel_max             =   7.7884828439036E+01
(PID.TID 0000.0001) %MON dynstat_uvel_min             =  -3.7702990031834E+01
(PID.TID 0000.0001) %MON dynstat_uvel_mean            =   5.3011525255585E+00
(PID.TID 0000.0001) %MON dynstat_uvel_sd              =   1.3832879226536E+01
(PID.TID 0000.0001) %MON dynstat_uvel_del2            =   1.2214273810713E+00
(PID.TID 0000.0001) %MON dynstat_vvel_max             =   5.1635995660444E+01
(PID.TID 0000.0001) %MON dynstat_vvel_min             =  -4.2147846760958E+01
(PID.TID 0000.0001) %MON dynstat_vvel_mean            =  -2.1706391629630E-02
(PID.TID 0000.0001) %MON dynstat_vvel_sd              =   7.4634938292728E+00
(PID.TID 0000.0001) %MON dynstat_vvel_del2            =   8.9320601821472E-01
(PID.TID 0000.0001) %MON dynstat_wvel_max             =   1.4502270575303E+00
(PID.TID 0000.0001) %MON dynstat_wvel_min             =  -2.0225450925082E+00
(PID.TID 0000.0001) %MON dynstat_wvel_mean            =   1.2584096574555E-05
(PID.TID 0000.0001) %MON dynstat_wvel_sd              =   1.3358875222260E-01
(PID.TID 0000.0001) %MON dynstat_wvel_del2            =   3.7696791602368E-02
(PID.TID 0000.0001) %MON dynstat_theta_max            =   4.8945926052150E+02
(PID.TID 0000.0001) %MON dynstat_theta_min            =   2.4133147088757E+02
(PID.TID 0000.0001) %MON dynstat_theta_mean           =   3.3105558069351E+02
(PID.TID 0000.0001) %MON dynstat_theta_sd             =   4.7104304300139E+01
(PID.TID 0000.0001) %MON dynstat_theta_del2           =   6.3036452172391E-01
(PID.TID 0000.0001) %MON dynstat_salt_max             =   1.8011092727096E+01
(PID.TID 0000.0001) %MON dynstat_salt_min             =  -6.7926026032841E-01
(PID.TID 0000.0001) %MON dynstat_salt_mean            =   2.3296031230996E+00
(PID.TID 0000.0001) %MON dynstat_salt_sd              =   3.2807522631165E+00
(PID.TID 0000.0001) %MON dynstat_salt_del2            =   1.0820377809723E-01
(PID.TID 0000.0001) %MON advcfl_uvel_max              =   1.5734961237407E+00
(PID.TID 0000.0001) %MON advcfl_vvel_max              =   7.4311450481614E-02
(PID.TID 0000.0001) %MON advcfl_wvel_max              =   5.2008302378781E-02
(PID.TID 0000.0001) %MON advcfl_W_hf_max              =   1.8202905832573E-01
(PID.TID 0000.0001) %MON pe_b_mean                    =   3.6149726410921E+00
(PID.TID 0000.0001) %MON ke_max                       =   3.0829254970073E+03
(PID.TID 0000.0001) %MON ke_mean                      =   1.3657864512842E+02
(PID.TID 0000.0001) %MON ke_vol                       =   4.9304391457656E+19
(PID.TID 0000.0001) %MON vort_r_min                   =  -1.8635277802404E-04
(PID.TID 0000.0001) %MON vort_r_max                   =   2.0995086369312E-04
(PID.TID 0000.0001) %MON vort_a_mean                  =  -3.9331396128497E-07
(PID.TID 0000.0001) %MON vort_a_sd                    =   8.8972324207665E-05
(PID.TID 0000.0001) %MON vort_p_mean                  =  -3.9913804092762E-07
(PID.TID 0000.0001) %MON vort_p_sd                    =   9.2043359028719E-05
(PID.TID 0000.0001) %MON surfExpan_theta_mean         =  -5.4754792648887E-03
(PID.TID 0000.0001) %MON surfExpan_salt_mean          =   1.1527222895211E-04
(PID.TID 0000.0001) %MON surfExpan_Heat_mean          =  -2.3046007392241E-01
(PID.TID 0000.0001) %MON En_Budget_T2PE_mean          =   1.9106831745474E+00
(PID.TID 0000.0001) // =======================================================
(PID.TID 0000.0001) // End MONITOR dynamic field statistics
(PID.TID 0000.0001) // =======================================================
 cg2d: Sum(rhs),rhsMax =   1.29732669051918E-10  3.96253350764630E+02
(PID.TID 0000.0001)                    cg2d_init_res =    4.25611244901753E+03
(PID.TID 0000.0001)                       cg2d_iters =   162
(PID.TID 0000.0001)                         cg2d_res =    1.96999497256789E-12
(PID.TID 0000.0001) // =======================================================
(PID.TID 0000.0001) // Begin MONITOR dynamic field statistics
(PID.TID 0000.0001) // =======================================================
(PID.TID 0000.0001) %MON time_tsnumber                =                 69125
(PID.TID 0000.0001) %MON time_secondsf                =   3.1106250000000E+07
(PID.TID 0000.0001) %MON dynstat_eta_max              =   3.4671775957236E+03
(PID.TID 0000.0001) %MON dynstat_eta_min              =  -3.7204937965508E+03
(PID.TID 0000.0001) %MON dynstat_eta_mean             =   6.1833436428465E-14
(PID.TID 0000.0001) %MON dynstat_eta_sd               =   8.3579189683567E+02
(PID.TID 0000.0001) %MON dynstat_eta_del2             =   1.0686632251007E+02
(PID.TID 0000.0001) %MON dynstat_uvel_max             =   7.7990929459795E+01
(PID.TID 0000.0001) %MON dynstat_uvel_min             =  -3.7674344239091E+01
(PID.TID 0000.0001) %MON dynstat_uvel_mean            =   5.3012410392926E+00
(PID.TID 0000.0001) %MON dynstat_uvel_sd              =   1.3832952184403E+01
(PID.TID 0000.0001) %MON dynstat_uvel_del2            =   1.2213601398510E+00
(PID.TID 0000.0001) %MON dynstat_vvel_max             =   5.1612119978622E+01
(PID.TID 0000.0001) %MON dynstat_vvel_min             =  -4.2117836211251E+01
(PID.TID 0000.0001) %MON dynstat_vvel_mean            =  -2.1849447865872E-02
(PID.TID 0000.0001) %MON dynstat_vvel_sd              =   7.4651217557586E+00
(PID.TID 0000.0001) %MON dynstat_vvel_del2            =   8.9319395589557E-01
(PID.TID 0000.0001) %MON dynstat_wvel_max             =   1.4508634591517E+00
(PID.TID 0000.0001) %MON dynstat_wvel_min             =  -2.0248029437815E+00
(PID.TID 0000.0001) %MON dynstat_wvel_mean            =   1.2658301257515E-05
(PID.TID 0000.0001) %MON dynstat_wvel_sd              =   1.3354767622111E-01
(PID.TID 0000.0001) %MON dynstat_wvel_del2            =   3.7676399467662E-02
(PID.TID 0000.0001) %MON dynstat_theta_max            =   4.8946297871407E+02
(PID.TID 0000.0001) %MON dynstat_theta_min            =   2.4132655335335E+02
(PID.TID 0000.0001) %MON dynstat_theta_mean           =   3.3105473789570E+02
(PID.TID 0000.0001) %MON dynstat_theta_sd             =   4.7105004936951E+01
(PID.TID 0000.0001) %MON dynstat_theta_del2           =   6.3022756494045E-01
(PID.TID 0000.0001) %MON dynstat_salt_max             =   1.7991744963490E+01
(PID.TID 0000.0001) %MON dynstat_salt_min             =  -6.8377087535382E-01
(PID.TID 0000.0001) %MON dynstat_salt_mean            =   2.3294769414580E+00
(PID.TID 0000.0001) %MON dynstat_salt_sd              =   3.2803946501197E+00
(PID.TID 0000.0001) %MON dynstat_salt_del2            =   1.0816467251788E-01
(PID.TID 0000.0001) %MON advcfl_uvel_max              =   1.5728386338987E+00
(PID.TID 0000.0001) %MON advcfl_vvel_max              =   7.4277090021924E-02
(PID.TID 0000.0001) %MON advcfl_wvel_max              =   5.2066361411524E-02
(PID.TID 0000.0001) %MON advcfl_W_hf_max              =   1.8223226494033E-01
(PID.TID 0000.0001) %MON pe_b_mean                    =   3.6121804906987E+00
(PID.TID 0000.0001) %MON ke_max                       =   3.0913123344667E+03
(PID.TID 0000.0001) %MON ke_mean                      =   1.3659215979015E+02
(PID.TID 0000.0001) %MON ke_vol                       =   4.9304391457656E+19
(PID.TID 0000.0001) %MON vort_r_min                   =  -1.8664047148848E-04
(PID.TID 0000.0001) %MON vort_r_max                   =   2.1021496009077E-04
(PID.TID 0000.0001) %MON vort_a_mean                  =  -3.9330176381122E-07
(PID.TID 0000.0001) %MON vort_a_sd                    =   8.8973106516819E-05
(PID.TID 0000.0001) %MON vort_p_mean                  =  -3.9912566283719E-07
(PID.TID 0000.0001) %MON vort_p_sd                    =   9.2044280802762E-05
(PID.TID 0000.0001) %MON surfExpan_theta_mean         =  -5.4341408613063E-03
(PID.TID 0000.0001) %MON surfExpan_salt_mean          =   1.3198025467159E-04
(PID.TID 0000.0001) %MON surfExpan_Heat_mean          =  -2.2487081981746E-01
(PID.TID 0000.0001) %MON En_Budget_T2PE_mean          =   1.9094207594126E+00
(PID.TID 0000.0001) // =======================================================
(PID.TID 0000.0001) // End MONITOR dynamic field statistics
(PID.TID 0000.0001) // =======================================================
 cg2d: Sum(rhs),rhsMax =  -1.42437173167309E-10  3.96412121242640E+02
(PID.TID 0000.0001)                    cg2d_init_res =    4.25932906624142E+03
(PID.TID 0000.0001)                       cg2d_iters =   162
(PID.TID 0000.0001)                         cg2d_res =    1.96578163922151E-12
(PID.TID 0000.0001) // =======================================================
(PID.TID 0000.0001) // Begin MONITOR dynamic field statistics
(PID.TID 0000.0001) // =======================================================
(PID.TID 0000.0001) %MON time_tsnumber                =                 69126
(PID.TID 0000.0001) %MON time_secondsf                =   3.1106700000000E+07
(PID.TID 0000.0001) %MON dynstat_eta_max              =   3.4650761751622E+03
(PID.TID 0000.0001) %MON dynstat_eta_min              =  -3.7182242003538E+03
(PID.TID 0000.0001) %MON dynstat_eta_mean             =   9.7409002007611E-14
(PID.TID 0000.0001) %MON dynstat_eta_sd               =   8.3546522040117E+02
(PID.TID 0000.0001) %MON dynstat_eta_del2             =   1.0687762267249E+02
(PID.TID 0000.0001) %MON dynstat_uvel_max             =   7.8092304895979E+01
(PID.TID 0000.0001) %MON dynstat_uvel_min             =  -3.7644570999647E+01
(PID.TID 0000.0001) %MON dynstat_uvel_mean            =   5.3013291623735E+00
(PID.TID 0000.0001) %MON dynstat_uvel_sd              =   1.3833026622204E+01
(PID.TID 0000.0001) %MON dynstat_uvel_del2            =   1.2212613508882E+00
(PID.TID 0000.0001) %MON dynstat_vvel_max             =   5.1581283484487E+01
(PID.TID 0000.0001) %MON dynstat_vvel_min             =  -4.2084789399144E+01
(PID.TID 0000.0001) %MON dynstat_vvel_mean            =  -2.1945948944392E-02
(PID.TID 0000.0001) %MON dynstat_vvel_sd              =   7.4667542216666E+00
(PID.TID 0000.0001) %MON dynstat_vvel_del2            =   8.9317339115637E-01
(PID.TID 0000.0001) %MON dynstat_wvel_max             =   1.4510673335326E+00
(PID.TID 0000.0001) %MON dynstat_wvel_min             =  -2.0273572790620E+00
(PID.TID 0000.0001) %MON dynstat_wvel_mean            =   1.2810943584317E-05
(PID.TID 0000.0001) %MON dynstat_wvel_sd              =   1.3350607074225E-01
(PID.TID 0000.0001) %MON dynstat_wvel_del2            =   3.7658355130266E-02
(PID.TID 0000.0001) %MON dynstat_theta_max            =   4.8946666260243E+02
(PID.TID 0000.0001) %MON dynstat_theta_min            =   2.4132151099841E+02
(PID.TID 0000.0001) %MON dynstat_theta_mean           =   3.3105388769689E+02
(PID.TID 0000.0001) %MON dynstat_theta_sd             =   4.7105706612878E+01
(PID.TID 0000.0001) %MON dynstat_theta_del2           =   6.3007415378186E-01
(PID.TID 0000.0001) %MON dynstat_salt_max             =   1.7973217770604E+01
(PID.TID 0000.0001) %MON dynstat_salt_min             =  -6.8822157436569E-01
(PID.TID 0000.0001) %MON dynstat_salt_mean            =   2.3293569238537E+00
(PID.TID 0000.0001) %MON dynstat_salt_sd              =   3.2800498901418E+00
(PID.TID 0000.0001) %MON dynstat_salt_del2            =   1.0812563458051E-01
(PID.TID 0000.0001) %MON advcfl_uvel_max              =   1.5721752700489E+00
(PID.TID 0000.0001) %MON advcfl_vvel_max              =   7.4232711975610E-02
(PID.TID 0000.0001) %MON advcfl_wvel_max              =   5.2132044318738E-02
(PID.TID 0000.0001) %MON advcfl_W_hf_max              =   1.8246215511558E-01
(PID.TID 0000.0001) %MON pe_b_mean                    =   3.6093573390539E+00
(PID.TID 0000.0001) %MON ke_max                       =   3.0993644916329E+03
(PID.TID 0000.0001) %MON ke_mean                      =   1.3660572796636E+02
(PID.TID 0000.0001) %MON ke_vol                       =   4.9304391457656E+19
(PID.TID 0000.0001) %MON vort_r_min                   =  -1.8690284612459E-04
(PID.TID 0000.0001) %MON vort_r_max                   =   2.1047816479435E-04
(PID.TID 0000.0001) %MON vort_a_mean                  =  -3.9328966028713E-07
(PID.TID 0000.0001) %MON vort_a_sd                    =   8.8973894654566E-05
(PID.TID 0000.0001) %MON vort_p_mean                  =  -3.9911338008761E-07
(PID.TID 0000.0001) %MON vort_p_sd                    =   9.2045204350500E-05
(PID.TID 0000.0001) %MON surfExpan_theta_mean         =  -5.4023715968523E-03
(PID.TID 0000.0001) %MON surfExpan_salt_mean          =   1.4340308523716E-04
(PID.TID 0000.0001) %MON surfExpan_Heat_mean          =  -2.1867603459954E-01
(PID.TID 0000.0001) %MON En_Budget_T2PE_mean          =   1.9067357903254E+00
(PID.TID 0000.0001) // =======================================================
(PID.TID 0000.0001) // End MONITOR dynamic field statistics
(PID.TID 0000.0001) // =======================================================
 cg2d: Sum(rhs),rhsMax =   3.18594040038533E-11  3.96564692909118E+02
(PID.TID 0000.0001)                    cg2d_init_res =    4.26283507628848E+03
(PID.TID 0000.0001)                       cg2d_iters =   162
(PID.TID 0000.0001)                         cg2d_res =    1.96063313025510E-12
(PID.TID 0000.0001) // =======================================================
(PID.TID 0000.0001) // Begin MONITOR dynamic field statistics
(PID.TID 0000.0001) // =======================================================
(PID.TID 0000.0001) %MON time_tsnumber                =                 69127
(PID.TID 0000.0001) %MON time_secondsf                =   3.1107150000000E+07
(PID.TID 0000.0001) %MON dynstat_eta_max              =   3.4628517295800E+03
(PID.TID 0000.0001) %MON dynstat_eta_min              =  -3.7159119093631E+03
(PID.TID 0000.0001) %MON dynstat_eta_mean             =   8.8887346947954E-14
(PID.TID 0000.0001) %MON dynstat_eta_sd               =   8.3513443396525E+02
(PID.TID 0000.0001) %MON dynstat_eta_del2             =   1.0688587295622E+02
(PID.TID 0000.0001) %MON dynstat_uvel_max             =   7.8188942804470E+01
(PID.TID 0000.0001) %MON dynstat_uvel_min             =  -3.7613401026867E+01
(PID.TID 0000.0001) %MON dynstat_uvel_mean            =   5.3014167815659E+00
(PID.TID 0000.0001) %MON dynstat_uvel_sd              =   1.3833102566691E+01
(PID.TID 0000.0001) %MON dynstat_uvel_del2            =   1.2211628527317E+00
(PID.TID 0000.0001) %MON dynstat_vvel_max             =   5.1543425105026E+01
(PID.TID 0000.0001) %MON dynstat_vvel_min             =  -4.2048693322880E+01
(PID.TID 0000.0001) %MON dynstat_vvel_mean            =  -2.1995352320668E-02
(PID.TID 0000.0001) %MON dynstat_vvel_sd              =   7.4683917131168E+00
(PID.TID 0000.0001) %MON dynstat_vvel_del2            =   8.9315583884195E-01
(PID.TID 0000.0001) %MON dynstat_wvel_max             =   1.4512475006254E+00
(PID.TID 0000.0001) %MON dynstat_wvel_min             =  -2.0303403757045E+00
(PID.TID 0000.0001) %MON dynstat_wvel_mean            =   1.3026743467355E-05
(PID.TID 0000.0001) %MON dynstat_wvel_sd              =   1.3346458006231E-01
(PID.TID 0000.0001) %MON dynstat_wvel_del2            =   3.7641412099693E-02
(PID.TID 0000.0001) %MON dynstat_theta_max            =   4.8947029764859E+02
(PID.TID 0000.0001) %MON dynstat_theta_min            =   2.4131632050673E+02
(PID.TID 0000.0001) %MON dynstat_theta_mean           =   3.3105303107103E+02
(PID.TID 0000.0001) %MON dynstat_theta_sd             =   4.7106407830096E+01
(PID.TID 0000.0001) %MON dynstat_theta_del2           =   6.2992403975638E-01
(PID.TID 0000.0001) %MON dynstat_salt_max             =   1.7955469658653E+01
(PID.TID 0000.0001) %MON dynstat_salt_min             =  -6.9259950221883E-01
(PID.TID 0000.0001) %MON dynstat_salt_mean            =   2.3292430418283E+00
(PID.TID 0000.0001) %MON dynstat_salt_sd              =   3.2797194617850E+00
(PID.TID 0000.0001) %MON dynstat_salt_del2            =   1.0808577741301E-01
(PID.TID 0000.0001) %MON advcfl_uvel_max              =   1.5715938204818E+00
(PID.TID 0000.0001) %MON advcfl_vvel_max              =   7.4178228450026E-02
(PID.TID 0000.0001) %MON advcfl_wvel_max              =   5.2208752518116E-02
(PID.TID 0000.0001) %MON advcfl_W_hf_max              =   1.8273063381341E-01
(PID.TID 0000.0001) %MON pe_b_mean                    =   3.6064997931864E+00
(PID.TID 0000.0001) %MON ke_max                       =   3.1070786063916E+03
(PID.TID 0000.0001) %MON ke_mean                      =   1.3661935302369E+02
(PID.TID 0000.0001) %MON ke_vol                       =   4.9304391457656E+19
(PID.TID 0000.0001) %MON vort_r_min                   =  -1.8714019881647E-04
(PID.TID 0000.0001) %MON vort_r_max                   =   2.1074112706906E-04
(PID.TID 0000.0001) %MON vort_a_mean                  =  -3.9327765521407E-07
(PID.TID 0000.0001) %MON vort_a_sd                    =   8.8974689008154E-05
(PID.TID 0000.0001) %MON vort_p_mean                  =  -3.9910119724690E-07
(PID.TID 0000.0001) %MON vort_p_sd                    =   9.2046130073244E-05
(PID.TID 0000.0001) %MON surfExpan_theta_mean         =  -5.3806306234839E-03
(PID.TID 0000.0001) %MON surfExpan_salt_mean          =   1.5437617707377E-04
(PID.TID 0000.0001) %MON surfExpan_Heat_mean          =  -2.1209778398369E-01
(PID.TID 0000.0001) %MON En_Budget_T2PE_mean          =   1.9028039738732E+00
(PID.TID 0000.0001) // =======================================================
(PID.TID 0000.0001) // End MONITOR dynamic field statistics
(PID.TID 0000.0001) // =======================================================
 cg2d: Sum(rhs),rhsMax =   1.13179243754757E-10  3.96709737188161E+02
(PID.TID 0000.0001)                    cg2d_init_res =    4.26665428328324E+03
(PID.TID 0000.0001)                       cg2d_iters =   162
(PID.TID 0000.0001)                         cg2d_res =    1.95499222168682E-12
(PID.TID 0000.0001) // =======================================================
(PID.TID 0000.0001) // Begin MONITOR dynamic field statistics
(PID.TID 0000.0001) // =======================================================
(PID.TID 0000.0001) %MON time_tsnumber                =                 69128
(PID.TID 0000.0001) %MON time_secondsf                =   3.1107600000000E+07
(PID.TID 0000.0001) %MON dynstat_eta_max              =   3.4605106388277E+03
(PID.TID 0000.0001) %MON dynstat_eta_min              =  -3.7135384366699E+03
(PID.TID 0000.0001) %MON dynstat_eta_mean             =   2.8952285195223E-13
(PID.TID 0000.0001) %MON dynstat_eta_sd               =   8.3479949976910E+02
(PID.TID 0000.0001) %MON dynstat_eta_del2             =   1.0689118097374E+02
(PID.TID 0000.0001) %MON dynstat_uvel_max             =   7.8280814480883E+01
(PID.TID 0000.0001) %MON dynstat_uvel_min             =  -3.7580572835391E+01
(PID.TID 0000.0001) %MON dynstat_uvel_mean            =   5.3015037787838E+00
(PID.TID 0000.0001) %MON dynstat_uvel_sd              =   1.3833179774943E+01
(PID.TID 0000.0001) %MON dynstat_uvel_del2            =   1.2210555391376E+00
(PID.TID 0000.0001) %MON dynstat_vvel_max             =   5.1498506290729E+01
(PID.TID 0000.0001) %MON dynstat_vvel_min             =  -4.2009523413661E+01
(PID.TID 0000.0001) %MON dynstat_vvel_mean            =  -2.1997147772892E-02
(PID.TID 0000.0001) %MON dynstat_vvel_sd              =   7.4700339236856E+00
(PID.TID 0000.0001) %MON dynstat_vvel_del2            =   8.9316704982435E-01
(PID.TID 0000.0001) %MON dynstat_wvel_max             =   1.4515192649129E+00
(PID.TID 0000.0001) %MON dynstat_wvel_min             =  -2.0337126266798E+00
(PID.TID 0000.0001) %MON dynstat_wvel_mean            =   1.3278121870136E-05
(PID.TID 0000.0001) %MON dynstat_wvel_sd              =   1.3342191606640E-01
(PID.TID 0000.0001) %MON dynstat_wvel_del2            =   3.7620365653336E-02
(PID.TID 0000.0001) %MON dynstat_theta_max            =   4.8947386690951E+02
(PID.TID 0000.0001) %MON dynstat_theta_min            =   2.4131050613822E+02
(PID.TID 0000.0001) %MON dynstat_theta_mean           =   3.3105215923733E+02
(PID.TID 0000.0001) %MON dynstat_theta_sd             =   4.7107112880118E+01
(PID.TID 0000.0001) %MON dynstat_theta_del2           =   6.2978876700122E-01
(PID.TID 0000.0001) %MON dynstat_salt_max             =   1.7938456796850E+01
(PID.TID 0000.0001) %MON dynstat_salt_min             =  -6.9689239411795E-01
(PID.TID 0000.0001) %MON dynstat_salt_mean            =   2.3291386310798E+00
(PID.TID 0000.0001) %MON dynstat_salt_sd              =   3.2794070014332E+00
(PID.TID 0000.0001) %MON dynstat_salt_del2            =   1.0804130493361E-01
(PID.TID 0000.0001) %MON advcfl_uvel_max              =   1.5709534826477E+00
(PID.TID 0000.0001) %MON advcfl_vvel_max              =   7.4113583967012E-02
(PID.TID 0000.0001) %MON advcfl_wvel_max              =   5.2295467543196E-02
(PID.TID 0000.0001) %MON advcfl_W_hf_max              =   1.8303413640118E-01
(PID.TID 0000.0001) %MON pe_b_mean                    =   3.6036075692874E+00
(PID.TID 0000.0001) %MON ke_max                       =   3.1144505080010E+03
(PID.TID 0000.0001) %MON ke_mean                      =   1.3663302874104E+02
(PID.TID 0000.0001) %MON ke_vol                       =   4.9304391457656E+19
(PID.TID 0000.0001) %MON vort_r_min                   =  -1.8735288979455E-04
(PID.TID 0000.0001) %MON vort_r_max                   =   2.1100442829545E-04
(PID.TID 0000.0001) %MON vort_a_mean                  =  -3.9326575525470E-07
(PID.TID 0000.0001) %MON vort_a_sd                    =   8.8975490127152E-05
(PID.TID 0000.0001) %MON vort_p_mean                  =  -3.9908912107637E-07
(PID.TID 0000.0001) %MON vort_p_sd                    =   9.2047058211492E-05
(PID.TID 0000.0001) %MON surfExpan_theta_mean         =  -5.3666268710610E-03
(PID.TID 0000.0001) %MON surfExpan_salt_mean          =   1.6893066025340E-04
(PID.TID 0000.0001) %MON surfExpan_Heat_mean          =  -2.0547728587770E-01
(PID.TID 0000.0001) %MON En_Budget_T2PE_mean          =   1.8979896479978E+00
(PID.TID 0000.0001) // =======================================================
(PID.TID 0000.0001) // End MONITOR dynamic field statistics
(PID.TID 0000.0001) // =======================================================
 cg2d: Sum(rhs),rhsMax =   6.03259664444522E-11  3.96846445527797E+02
(PID.TID 0000.0001)                    cg2d_init_res =    4.27080742465336E+03
(PID.TID 0000.0001)                       cg2d_iters =   162
(PID.TID 0000.0001)                         cg2d_res =    1.94921565219692E-12
(PID.TID 0000.0001) // =======================================================
(PID.TID 0000.0001) // Begin MONITOR dynamic field statistics
(PID.TID 0000.0001) // =======================================================
(PID.TID 0000.0001) %MON time_tsnumber                =                 69129
(PID.TID 0000.0001) %MON time_secondsf                =   3.1108050000000E+07
(PID.TID 0000.0001) %MON dynstat_eta_max              =   3.4580486589368E+03
(PID.TID 0000.0001) %MON dynstat_eta_min              =  -3.7110926034043E+03
(PID.TID 0000.0001) %MON dynstat_eta_mean             =  -1.4849231440185E-13
(PID.TID 0000.0001) %MON dynstat_eta_sd               =   8.3446092002008E+02
(PID.TID 0000.0001) %MON dynstat_eta_del2             =   1.0689422181101E+02
(PID.TID 0000.0001) %MON dynstat_uvel_max             =   7.8367895281548E+01
(PID.TID 0000.0001) %MON dynstat_uvel_min             =  -3.7545845829425E+01
(PID.TID 0000.0001) %MON dynstat_uvel_mean            =   5.3015901290091E+00
(PID.TID 0000.0001) %MON dynstat_uvel_sd              =   1.3833257121485E+01
(PID.TID 0000.0001) %MON dynstat_uvel_del2            =   1.2209450740421E+00
(PID.TID 0000.0001) %MON dynstat_vvel_max             =   5.1446499903118E+01
(PID.TID 0000.0001) %MON dynstat_vvel_min             =  -4.1967258519629E+01
(PID.TID 0000.0001) %MON dynstat_vvel_mean            =  -2.1950654615656E-02
(PID.TID 0000.0001) %MON dynstat_vvel_sd              =   7.4716829082956E+00
(PID.TID 0000.0001) %MON dynstat_vvel_del2            =   8.9318939901387E-01
(PID.TID 0000.0001) %MON dynstat_wvel_max             =   1.4518206115528E+00
(PID.TID 0000.0001) %MON dynstat_wvel_min             =  -2.0373804703755E+00
(PID.TID 0000.0001) %MON dynstat_wvel_mean            =   1.3524960080872E-05
(PID.TID 0000.0001) %MON dynstat_wvel_sd              =   1.3337952885932E-01
(PID.TID 0000.0001) %MON dynstat_wvel_del2            =   3.7600252424433E-02
(PID.TID 0000.0001) %MON dynstat_theta_max            =   4.8947735471219E+02
(PID.TID 0000.0001) %MON dynstat_theta_min            =   2.4130454664333E+02
(PID.TID 0000.0001) %MON dynstat_theta_mean           =   3.3105127718072E+02
(PID.TID 0000.0001) %MON dynstat_theta_sd             =   4.7107818271531E+01
(PID.TID 0000.0001) %MON dynstat_theta_del2           =   6.2966230984716E-01
(PID.TID 0000.0001) %MON dynstat_salt_max             =   1.7922134711550E+01
(PID.TID 0000.0001) %MON dynstat_salt_min             =  -7.0107534995425E-01
(PID.TID 0000.0001) %MON dynstat_salt_mean            =   2.3290414007289E+00
(PID.TID 0000.0001) %MON dynstat_salt_sd              =   3.2791123717565E+00
(PID.TID 0000.0001) %MON dynstat_salt_del2            =   1.0799504782360E-01
(PID.TID 0000.0001) %MON advcfl_uvel_max              =   1.5702526579976E+00
(PID.TID 0000.0001) %MON advcfl_vvel_max              =   7.4038739470490E-02
(PID.TID 0000.0001) %MON advcfl_wvel_max              =   5.2389783523942E-02
(PID.TID 0000.0001) %MON advcfl_W_hf_max              =   1.8336424233380E-01
(PID.TID 0000.0001) %MON pe_b_mean                    =   3.6006850444905E+00
(PID.TID 0000.0001) %MON ke_max                       =   3.1214763132848E+03
(PID.TID 0000.0001) %MON ke_mean                      =   1.3664675474948E+02
(PID.TID 0000.0001) %MON ke_vol                       =   4.9304391457656E+19
(PID.TID 0000.0001) %MON vort_r_min                   =  -1.8754135058956E-04
(PID.TID 0000.0001) %MON vort_r_max                   =   2.1126852931443E-04
(PID.TID 0000.0001) %MON vort_a_mean                  =  -3.9325396835285E-07
(PID.TID 0000.0001) %MON vort_a_sd                    =   8.8976298316935E-05
(PID.TID 0000.0001) %MON vort_p_mean                  =  -3.9907715963747E-07
(PID.TID 0000.0001) %MON vort_p_sd                    =   9.2047988688945E-05
(PID.TID 0000.0001) %MON surfExpan_theta_mean         =  -5.3612786970481E-03
(PID.TID 0000.0001) %MON surfExpan_salt_mean          =   1.8456037567157E-04
(PID.TID 0000.0001) %MON surfExpan_Heat_mean          =  -1.9984196009673E-01
(PID.TID 0000.0001) %MON En_Budget_T2PE_mean          =   1.8933966211715E+00
(PID.TID 0000.0001) // =======================================================
(PID.TID 0000.0001) // End MONITOR dynamic field statistics
(PID.TID 0000.0001) // =======================================================
 cg2d: Sum(rhs),rhsMax =  -3.64957397636090E-10  3.96974916244602E+02
(PID.TID 0000.0001)                    cg2d_init_res =    4.27531234694937E+03
(PID.TID 0000.0001)                       cg2d_iters =   162
(PID.TID 0000.0001)                         cg2d_res =    1.94336835482494E-12
(PID.TID 0000.0001) // =======================================================
(PID.TID 0000.0001) // Begin MONITOR dynamic field statistics
(PID.TID 0000.0001) // =======================================================
(PID.TID 0000.0001) %MON time_tsnumber                =                 69130
(PID.TID 0000.0001) %MON time_secondsf                =   3.1108500000000E+07
(PID.TID 0000.0001) %MON dynstat_eta_max              =   3.4554572917188E+03
(PID.TID 0000.0001) %MON dynstat_eta_min              =  -3.7085705040195E+03
(PID.TID 0000.0001) %MON dynstat_eta_mean             =   5.1512692391596E-13
(PID.TID 0000.0001) %MON dynstat_eta_sd               =   8.3411954865917E+02
(PID.TID 0000.0001) %MON dynstat_eta_del2             =   1.0689691578577E+02
(PID.TID 0000.0001) %MON dynstat_uvel_max             =   7.8450177898622E+01
(PID.TID 0000.0001) %MON dynstat_uvel_min             =  -3.7509021224361E+01
(PID.TID 0000.0001) %MON dynstat_uvel_mean            =   5.3016758298457E+00
(PID.TID 0000.0001) %MON dynstat_uvel_sd              =   1.3833334455897E+01
(PID.TID 0000.0001) %MON dynstat_uvel_del2            =   1.2208337438272E+00
(PID.TID 0000.0001) %MON dynstat_vvel_max             =   5.1387354738520E+01
(PID.TID 0000.0001) %MON dynstat_vvel_min             =  -4.1921890237679E+01
(PID.TID 0000.0001) %MON dynstat_vvel_mean            =  -2.1855461849305E-02
(PID.TID 0000.0001) %MON dynstat_vvel_sd              =   7.4733388321943E+00
(PID.TID 0000.0001) %MON dynstat_vvel_del2            =   8.9321205744519E-01
(PID.TID 0000.0001) %MON dynstat_wvel_max             =   1.4520631917754E+00
(PID.TID 0000.0001) %MON dynstat_wvel_min             =  -2.0412508820205E+00
(PID.TID 0000.0001) %MON dynstat_wvel_mean            =   1.3742761076975E-05
(PID.TID 0000.0001) %MON dynstat_wvel_sd              =   1.3333853098727E-01
(PID.TID 0000.0001) %MON dynstat_wvel_del2            =   3.7581636643672E-02
(PID.TID 0000.0001) %MON dynstat_theta_max            =   4.8948075052539E+02
(PID.TID 0000.0001) %MON dynstat_theta_min            =   2.4129843634794E+02
(PID.TID 0000.0001) %MON dynstat_theta_mean           =   3.3105039920710E+02
(PID.TID 0000.0001) %MON dynstat_theta_sd             =   4.7108522171092E+01
(PID.TID 0000.0001) %MON dynstat_theta_del2           =   6.2952754733325E-01
(PID.TID 0000.0001) %MON dynstat_salt_max             =   1.7906464933417E+01
(PID.TID 0000.0001) %MON dynstat_salt_min             =  -7.0513298872355E-01
(PID.TID 0000.0001) %MON dynstat_salt_mean            =   2.3289464037276E+00
(PID.TID 0000.0001) %MON dynstat_salt_sd              =   3.2788295756770E+00
(PID.TID 0000.0001) %MON dynstat_salt_del2            =   1.0794716481468E-01
(PID.TID 0000.0001) %MON advcfl_uvel_max              =   1.5694897811752E+00
(PID.TID 0000.0001) %MON advcfl_vvel_max              =   7.3953621271178E-02
(PID.TID 0000.0001) %MON advcfl_wvel_max              =   5.2489308394812E-02
(PID.TID 0000.0001) %MON advcfl_W_hf_max              =   1.8371257938184E-01
(PID.TID 0000.0001) %MON pe_b_mean                    =   3.5977396235550E+00
(PID.TID 0000.0001) %MON ke_max                       =   3.1281529237494E+03
(PID.TID 0000.0001) %MON ke_mean                      =   1.3666053022468E+02
(PID.TID 0000.0001) %MON ke_vol                       =   4.9304391457656E+19
(PID.TID 0000.0001) %MON vort_r_min                   =  -1.8770608656422E-04
(PID.TID 0000.0001) %MON vort_r_max                   =   2.1153365200804E-04
(PID.TID 0000.0001) %MON vort_a_mean                  =  -3.9324230274998E-07
(PID.TID 0000.0001) %MON vort_a_sd                    =   8.8977113469310E-05
(PID.TID 0000.0001) %MON vort_p_mean                  =  -3.9906532129372E-07
(PID.TID 0000.0001) %MON vort_p_sd                    =   9.2048921120424E-05
(PID.TID 0000.0001) %MON surfExpan_theta_mean         =  -5.3604102746652E-03
(PID.TID 0000.0001) %MON surfExpan_salt_mean          =   1.9845610223711E-04
(PID.TID 0000.0001) %MON surfExpan_Heat_mean          =  -1.9534404085577E-01
(PID.TID 0000.0001) %MON En_Budget_T2PE_mean          =   1.8896039819413E+00
(PID.TID 0000.0001) // =======================================================
(PID.TID 0000.0001) // End MONITOR dynamic field statistics
(PID.TID 0000.0001) // =======================================================
(PID.TID 0000.0001) %CHECKPOINT     69130 ckptA
(PID.TID 0000.0001)   Seconds in section "ALL                    [THE_MODEL_MAIN]":
(PID.TID 0000.0001)           User time:  16.0499992
(PID.TID 0000.0001)         System time:  0.109999999
(PID.TID 0000.0001)     Wall clock time:  16.263056
(PID.TID 0000.0001)          No. starts: 1
(PID.TID 0000.0001)           No. stops: 1
(PID.TID 0000.0001)   Seconds in section "INITIALISE_FIXED       [THE_MODEL_MAIN]":
(PID.TID 0000.0001)           User time:  0.239999995
(PID.TID 0000.0001)         System time:  0.0199999996
(PID.TID 0000.0001)     Wall clock time:  0.304480791
(PID.TID 0000.0001)          No. starts: 1
(PID.TID 0000.0001)           No. stops: 1
(PID.TID 0000.0001)   Seconds in section "THE_MAIN_LOOP          [THE_MODEL_MAIN]":
(PID.TID 0000.0001)           User time:  15.7399995
(PID.TID 0000.0001)         System time:  0.070000004
(PID.TID 0000.0001)     Wall clock time:  15.8639259
(PID.TID 0000.0001)          No. starts: 1
(PID.TID 0000.0001)           No. stops: 1
(PID.TID 0000.0001)   Seconds in section "INITIALISE_VARIA    [THE_MAIN_LOOP]":
(PID.TID 0000.0001)           User time:  0.160000011
(PID.TID 0000.0001)         System time:  0.0300000012
(PID.TID 0000.0001)     Wall clock time:  0.183359146
(PID.TID 0000.0001)          No. starts: 1
(PID.TID 0000.0001)           No. stops: 1
(PID.TID 0000.0001)   Seconds in section "MONITOR             [THE_MAIN_LOOP]":
(PID.TID 0000.0001)           User time:  0.119999975
(PID.TID 0000.0001)         System time:  0.
(PID.TID 0000.0001)     Wall clock time:  0.12134409
(PID.TID 0000.0001)          No. starts: 1
(PID.TID 0000.0001)           No. stops: 1
(PID.TID 0000.0001)   Seconds in section "DO_THE_MODEL_IO     [THE_MAIN_LOOP]":
(PID.TID 0000.0001)           User time:  0.0400000215
(PID.TID 0000.0001)         System time:  0.
(PID.TID 0000.0001)     Wall clock time:  0.0417950153
(PID.TID 0000.0001)          No. starts: 1
(PID.TID 0000.0001)           No. stops: 1
(PID.TID 0000.0001)   Seconds in section "MAIN LOOP           [THE_MAIN_LOOP]":
(PID.TID 0000.0001)           User time:  15.4199995
(PID.TID 0000.0001)         System time:  0.0400000028
(PID.TID 0000.0001)     Wall clock time:  15.5173171
(PID.TID 0000.0001)          No. starts: 1
(PID.TID 0000.0001)           No. stops: 1
(PID.TID 0000.0001)   Seconds in section "FORWARD_STEP        [THE_MAIN_LOOP]":
(PID.TID 0000.0001)           User time:  15.4199995
(PID.TID 0000.0001)         System time:  0.0400000028
(PID.TID 0000.0001)     Wall clock time:  15.5170877
(PID.TID 0000.0001)          No. starts: 10
(PID.TID 0000.0001)           No. stops: 10
(PID.TID 0000.0001)   Seconds in section "UPDATE_ETAH        [FORWARD_STEP]":
(PID.TID 0000.0001)           User time:  0.
(PID.TID 0000.0001)         System time:  0.
(PID.TID 0000.0001)     Wall clock time:  0.00262475014
(PID.TID 0000.0001)          No. starts: 10
(PID.TID 0000.0001)           No. stops: 10
(PID.TID 0000.0001)   Seconds in section "EXTERNAL_FIELDS_LOAD[FORWARD_STEP]":
(PID.TID 0000.0001)           User time:  0.0199999809
(PID.TID 0000.0001)         System time:  0.
(PID.TID 0000.0001)     Wall clock time:  0.0473809242
(PID.TID 0000.0001)          No. starts: 10
(PID.TID 0000.0001)           No. stops: 10
(PID.TID 0000.0001)   Seconds in section "THERMODYNAMICS      [FORWARD_STEP]":
(PID.TID 0000.0001)           User time:  3.18999869
(PID.TID 0000.0001)         System time:  0.00999999791
(PID.TID 0000.0001)     Wall clock time:  3.20916915
(PID.TID 0000.0001)          No. starts: 10
(PID.TID 0000.0001)           No. stops: 10
(PID.TID 0000.0001)   Seconds in section "AIM_DO_PHYSICS   [THERMODYNAMICS]":
(PID.TID 0000.0001)           User time:  1.9899978
(PID.TID 0000.0001)         System time:  0.
(PID.TID 0000.0001)     Wall clock time:  1.97851205
(PID.TID 0000.0001)          No. starts: 20
(PID.TID 0000.0001)           No. stops: 20
(PID.TID 0000.0001)   Seconds in section "BLOCKING_EXCHANGES  [FORWARD_STEP]":
(PID.TID 0000.0001)           User time:  0.0299992561
(PID.TID 0000.0001)         System time:  0.
(PID.TID 0000.0001)     Wall clock time:  0.0277798176
(PID.TID 0000.0001)          No. starts: 20
(PID.TID 0000.0001)           No. stops: 20
(PID.TID 0000.0001)   Seconds in section "SHAP_FILT           [FORWARD_STEP]":
(PID.TID 0000.0001)           User time:  0.690000653
(PID.TID 0000.0001)         System time:  0.
(PID.TID 0000.0001)     Wall clock time:  0.677826881
(PID.TID 0000.0001)          No. starts: 10
(PID.TID 0000.0001)           No. stops: 10
(PID.TID 0000.0001)   Seconds in section "ZONAL_FILT_APPLY    [FORWARD_STEP]":
(PID.TID 0000.0001)           User time:  0.109999657
(PID.TID 0000.0001)         System time:  0.
(PID.TID 0000.0001)     Wall clock time:  0.12724185
(PID.TID 0000.0001)          No. starts: 10
(PID.TID 0000.0001)           No. stops: 10
(PID.TID 0000.0001)   Seconds in section "DYNAMICS            [FORWARD_STEP]":
(PID.TID 0000.0001)           User time:  1.58000028
(PID.TID 0000.0001)         System time:  0.0100000016
(PID.TID 0000.0001)     Wall clock time:  1.57347274
(PID.TID 0000.0001)          No. starts: 10
(PID.TID 0000.0001)           No. stops: 10
(PID.TID 0000.0001)   Seconds in section "SOLVE_FOR_PRESSURE  [FORWARD_STEP]":
(PID.TID 0000.0001)           User time:  7.31999993
(PID.TID 0000.0001)         System time:  0.
(PID.TID 0000.0001)     Wall clock time:  7.33489203
(PID.TID 0000.0001)          No. starts: 10
(PID.TID 0000.0001)           No. stops: 10
(PID.TID 0000.0001)   Seconds in section "THE_CORRECTION_STEP [FORWARD_STEP]":
(PID.TID 0000.0001)           User time:  1.24999964
(PID.TID 0000.0001)         System time:  0.
(PID.TID 0000.0001)     Wall clock time:  1.25669336
(PID.TID 0000.0001)          No. starts: 10
(PID.TID 0000.0001)           No. stops: 10
(PID.TID 0000.0001)   Seconds in section "MONITOR             [FORWARD_STEP]":
(PID.TID 0000.0001)           User time:  1.17000151
(PID.TID 0000.0001)         System time:  0.
(PID.TID 0000.0001)     Wall clock time:  1.17860961
(PID.TID 0000.0001)          No. starts: 10
(PID.TID 0000.0001)           No. stops: 10
(PID.TID 0000.0001)   Seconds in section "DO_THE_MODEL_IO     [FORWARD_STEP]":
(PID.TID 0000.0001)           User time:  0.0399999619
(PID.TID 0000.0001)         System time:  0.0200000033
(PID.TID 0000.0001)     Wall clock time:  0.0780844688
(PID.TID 0000.0001)          No. starts: 10
(PID.TID 0000.0001)           No. stops: 10
(PID.TID 0000.0001)   Seconds in section "WRITE_CHECKPOINT    [FORWARD_STEP]":
(PID.TID 0000.0001)           User time:  0.
(PID.TID 0000.0001)         System time:  0.
(PID.TID 0000.0001)     Wall clock time:  0.00021982193
(PID.TID 0000.0001)          No. starts: 10
(PID.TID 0000.0001)           No. stops: 10
(PID.TID 0000.0001)   Seconds in section "WRITE_CHECKPOINT       [THE_MODEL_MAIN]":
(PID.TID 0000.0001)           User time:  0.0699996948
(PID.TID 0000.0001)         System time:  0.0199999958
(PID.TID 0000.0001)     Wall clock time:  0.0945539474
(PID.TID 0000.0001)          No. starts: 1
(PID.TID 0000.0001)           No. stops: 1
(PID.TID 0000.0001) // ======================================================
(PID.TID 0000.0001) // Tile <-> Tile communication statistics
(PID.TID 0000.0001) // ======================================================
(PID.TID 0000.0001) // o Tile number: 000001
(PID.TID 0000.0001) //         No. X exchanges =              0
(PID.TID 0000.0001) //            Max. X spins =              0
(PID.TID 0000.0001) //            Min. X spins =     1000000000
(PID.TID 0000.0001) //          Total. X spins =              0
(PID.TID 0000.0001) //            Avg. X spins =       0.00E+00
(PID.TID 0000.0001) //         No. Y exchanges =              0
(PID.TID 0000.0001) //            Max. Y spins =              0
(PID.TID 0000.0001) //            Min. Y spins =     1000000000
(PID.TID 0000.0001) //          Total. Y spins =              0
(PID.TID 0000.0001) //            Avg. Y spins =       0.00E+00
(PID.TID 0000.0001) // o Tile number: 000002
(PID.TID 0000.0001) //         No. X exchanges =              0
(PID.TID 0000.0001) //            Max. X spins =              0
(PID.TID 0000.0001) //            Min. X spins =     1000000000
(PID.TID 0000.0001) //          Total. X spins =              0
(PID.TID 0000.0001) //            Avg. X spins =       0.00E+00
(PID.TID 0000.0001) //         No. Y exchanges =              0
(PID.TID 0000.0001) //            Max. Y spins =              0
(PID.TID 0000.0001) //            Min. Y spins =     1000000000
(PID.TID 0000.0001) //          Total. Y spins =              0
(PID.TID 0000.0001) //            Avg. Y spins =       0.00E+00
(PID.TID 0000.0001) // o Thread number: 000001
(PID.TID 0000.0001) //            No. barriers =          23643
(PID.TID 0000.0001) //      Max. barrier spins =              1
(PID.TID 0000.0001) //      Min. barrier spins =              1
(PID.TID 0000.0001) //     Total barrier spins =          23643
(PID.TID 0000.0001) //      Avg. barrier spins =       1.00E+00
