(PID.TID 0000.0001) 
(PID.TID 0000.0001) // ======================================================
(PID.TID 0000.0001) //                      MITgcm UV
(PID.TID 0000.0001) //                      =========
(PID.TID 0000.0001) // ======================================================
(PID.TID 0000.0001) // execution environment starting up...
(PID.TID 0000.0001) // Run starting Wed Apr  1 14:19:48 1998
(PID.TID 0000.0001) // on melville.lcs.mit.edu
(PID.TID 0000.0001) // account cnh
(PID.TID 0000.0001) // MITgcm UV Release: $Name:  $
(PID.TID 0000.0001) 
(PID.TID 0000.0001) // =======================================================
(PID.TID 0000.0001) // Execution Environment parameter file "eedata"
(PID.TID 0000.0001) // =======================================================
(PID.TID 0000.0001) ># Example "eedata" file
(PID.TID 0000.0001) ># Lines beginning "#" are comments
(PID.TID 0000.0001) ># nTx - No. threads per process in X
(PID.TID 0000.0001) ># nTy - No. threads per process in Y
(PID.TID 0000.0001) > &EEPARMS
(PID.TID 0000.0001) > &
(PID.TID 0000.0001) ># Note: Some systems use & as the
(PID.TID 0000.0001) ># namelist terminator. Other systems
(PID.TID 0000.0001) ># use a / character (as shown here).
(PID.TID 0000.0001) 
(PID.TID 0000.0001) // =======================================================
(PID.TID 0000.0001) // Computational Grid Specification ( see files "SIZE.h" )
(PID.TID 0000.0001) //                                  ( and "eedata"       )
(PID.TID 0000.0001) // =======================================================
(PID.TID 0000.0001)      nPx =    1 ; /* No. processes in X */
(PID.TID 0000.0001)      nPy =    1 ; /* No. processes in Y */
(PID.TID 0000.0001)      nSx =    1 ; /* No. tiles in X per process */
(PID.TID 0000.0001)      nSy =    1 ; /* No. tiles in Y per process */
(PID.TID 0000.0001)      sNx =  128 ; /* Tile size in X */
(PID.TID 0000.0001)      sNy =   64 ; /* Tile size in Y */
(PID.TID 0000.0001)      OLx =    3 ; /* Tile overlap distance in X */
(PID.TID 0000.0001)      OLy =    3 ; /* Tile overlap distance in Y */
(PID.TID 0000.0001)      nTx =    1 ; /* No. threads in X per process */
(PID.TID 0000.0001)      nTy =    1 ; /* No. threads in Y per process */
(PID.TID 0000.0001)       Nr =    5 ; /* No. levels in the vertical   */
(PID.TID 0000.0001)       nX =  128 ; /* Total domain size in X ( = nPx*nSx*sNx ) */
(PID.TID 0000.0001)       nY =   64 ; /* Total domain size in Y ( = nPy*nSy*sNy ) */
(PID.TID 0000.0001)   nTiles =    1 ; /* Total no. tiles per process ( = nSx*nSy ) */
(PID.TID 0000.0001)   nProcs =    1 ; /* Total no. processes ( = nPx*nPy ) */
(PID.TID 0000.0001) nThreads =    1 ; /* Total no. threads per process ( = nTx*nTy ) */
(PID.TID 0000.0001) usingMPI =    F ; /* Flag used to control whether MPI is in use */
(PID.TID 0000.0001)                   /*  note: To execute a program with MPI calls */
(PID.TID 0000.0001)                   /*  it must be launched appropriately e.g     */
(PID.TID 0000.0001)                   /*  "mpirun -np 64 ......"                    */
(PID.TID 0000.0001) 
(PID.TID 0000.0001) // ======================================================
(PID.TID 0000.0001) // Mapping of tiles to threads
(PID.TID 0000.0001) // ======================================================
(PID.TID 0000.0001) // -o- Thread   1, tiles (   1:   1,   1:   1)
(PID.TID 0000.0001) 
(PID.TID 0000.0001) // ======================================================
(PID.TID 0000.0001) // Tile <-> Tile connectvity table
(PID.TID 0000.0001) // ======================================================
(PID.TID 0000.0001) // Tile number: 000001 (process no. = 000001)
(PID.TID 0000.0001) //        WEST: Tile = 000001, Process = 000001, Comm = put
(PID.TID 0000.0001) //                bi = 000001, bj = 000001
(PID.TID 0000.0001) //        EAST: Tile = 000001, Process = 000001, Comm = put
(PID.TID 0000.0001) //                bi = 000001, bj = 000001
(PID.TID 0000.0001) //       SOUTH: Tile = 000001, Process = 000001, Comm = put
(PID.TID 0000.0001) //                bi = 000001, bj = 000001
(PID.TID 0000.0001) //       NORTH: Tile = 000001, Process = 000001, Comm = put
(PID.TID 0000.0001) //                bi = 000001, bj = 000001
(PID.TID 0000.0001) 
(PID.TID 0000.0001) // =======================================================
(PID.TID 0000.0001) // Model parameter file "data"
(PID.TID 0000.0001) // =======================================================
(PID.TID 0000.0001) ># ====================
(PID.TID 0000.0001) ># | Model parameters |
(PID.TID 0000.0001) ># ====================
(PID.TID 0000.0001) >#
(PID.TID 0000.0001) ># Continuous equation parameters
(PID.TID 0000.0001) > &PARM01
(PID.TID 0000.0001) > tRef=281.089, 289.321, 307.191, 331.377, 432.413,
(PID.TID 0000.0001) > sRef=5*0.,
(PID.TID 0000.0001) > viscAr=0.E3,
(PID.TID 0000.0001) > viscAh=0.E6,
(PID.TID 0000.0001) > viscA4=0.E17,
(PID.TID 0000.0001) > no_slip_sides=.FALSE.,
(PID.TID 0000.0001) > no_slip_bottom=.FALSE.,
(PID.TID 0000.0001) > diffKhT=0.E3,
(PID.TID 0000.0001) > diffKrT=0.,
(PID.TID 0000.0001) > diffK4T=0.E17,
(PID.TID 0000.0001) > diffKrS=0.E2,
(PID.TID 0000.0001) > diffKhS=0.E3,
(PID.TID 0000.0001) > diffK4S=0.E17,
(PID.TID 0000.0001) > buoyancyRelation='ATMOSPHERIC',
(PID.TID 0000.0001) > eosType='IDEALGAS',
(PID.TID 0000.0001) > Integr_GeoPot=2,
(PID.TID 0000.0001) > gravity=9.81,
(PID.TID 0000.0001) > rhonil=1.0,
(PID.TID 0000.0001) > rhoConst=1.0,
(PID.TID 0000.0001) > rigidLid=.FALSE.,
(PID.TID 0000.0001) > implicitFreeSurface=.TRUE.,
(PID.TID 0000.0001) > staggerTimeStep=.TRUE.,
(PID.TID 0000.0001) > nonHydrostatic=.FALSE.,
(PID.TID 0000.0001) > readBinaryPrec=64,
(PID.TID 0000.0001) > writeBinaryPrec=64,
(PID.TID 0000.0001) > hFacMin=1.0,
(PID.TID 0000.0001) > zonal_filt_lat=45.0,
(PID.TID 0000.0001) > saltAdvScheme=3,
(PID.TID 0000.0001) > &
(PID.TID 0000.0001) >
(PID.TID 0000.0001) ># Elliptic solver parameters
(PID.TID 0000.0001) > &PARM02
(PID.TID 0000.0001) > cg2dMaxIters=200,
(PID.TID 0000.0001) >#cg2dTargetResidual=1.E-12,
(PID.TID 0000.0001) > cg2dTargetResWunit=1.E-17,
(PID.TID 0000.0001) > &
(PID.TID 0000.0001) >
(PID.TID 0000.0001) ># Time stepping parameters
(PID.TID 0000.0001) > &PARM03
(PID.TID 0000.0001) > niter0=17280,
(PID.TID 0000.0001) > nTimeSteps=10,
(PID.TID 0000.0001) >#endTime=31104000.,
(PID.TID 0000.0001) > deltaT=450.0,
(PID.TID 0000.0001) > abEps=0.1,
(PID.TID 0000.0001) > cAdjFreq=0.,
(PID.TID 0000.0001) > pChkptFreq=2592000.0,
(PID.TID 0000.0001) > chkptFreq=0.0,
(PID.TID 0000.0001) > dumpFreq=2592000.0,
(PID.TID 0000.0001) > taveFreq=2592000.0,
(PID.TID 0000.0001) > monitorFreq=1.0,
(PID.TID 0000.0001) > &
(PID.TID 0000.0001) >
(PID.TID 0000.0001) ># Gridding parameters
(PID.TID 0000.0001) > &PARM04
(PID.TID 0000.0001) > usingCartesianGrid=.FALSE.,
(PID.TID 0000.0001) > usingSphericalPolarGrid=.TRUE.,
(PID.TID 0000.0001) > delX=128*2.8125,
(PID.TID 0000.0001) > delY=64*2.8125,
(PID.TID 0000.0001) > delR=1.E4, 2.5E4, 3.E4, 2.E4, 1.5E4,
(PID.TID 0000.0001) > Ro_SeaLevel=1.E5,
(PID.TID 0000.0001) > groundAtK1=.TRUE.,
(PID.TID 0000.0001) > phiMin=-90.,
(PID.TID 0000.0001) > rSphere=6370.E3,
(PID.TID 0000.0001) > &
(PID.TID 0000.0001) >
(PID.TID 0000.0001) ># Input datasets
(PID.TID 0000.0001) > &PARM05
(PID.TID 0000.0001) > bathyFile='orography_fullcell.bin',
(PID.TID 0000.0001) > &
(PID.TID 0000.0001) 
(PID.TID 0000.0001) %MON XC_max                       =   3.5859375000000E+02
(PID.TID 0000.0001) %MON XC_min                       =   1.4062500000000E+00
(PID.TID 0000.0001) %MON XC_mean                      =   1.8000000000000E+02
(PID.TID 0000.0001) %MON XC_sd                        =   1.0391987692599E+02
(PID.TID 0000.0001) %MON XG_max                       =   3.5718750000000E+02
(PID.TID 0000.0001) %MON XG_min                       =   2.8125000000000E+00
(PID.TID 0000.0001) %MON XG_mean                      =   1.8000000000000E+02
(PID.TID 0000.0001) %MON XG_sd                        =   1.0310795313651E+02
(PID.TID 0000.0001) %MON DXC_max                      =   3.1259246843155E+05
(PID.TID 0000.0001) %MON DXC_min                      =   7.6737143816223E+03
(PID.TID 0000.0001) %MON DXC_mean                     =   1.9908248704234E+05
(PID.TID 0000.0001) %MON DXC_sd                       =   9.6190602240068E+04
(PID.TID 0000.0001) %MON DXF_max                      =   3.1259246843155E+05
(PID.TID 0000.0001) %MON DXF_min                      =   7.6737143816223E+03
(PID.TID 0000.0001) %MON DXF_mean                     =   1.9908248704234E+05
(PID.TID 0000.0001) %MON DXF_sd                       =   9.6190602240068E+04
(PID.TID 0000.0001) %MON DXG_max                      =   3.1268664380261E+05
(PID.TID 0000.0001) %MON DXG_min                      =   1.5342806404640E+04
(PID.TID 0000.0001) %MON DXG_mean                     =   2.0218161485138E+05
(PID.TID 0000.0001) %MON DXG_sd                       =   9.3728538420912E+04
(PID.TID 0000.0001) %MON DXV_max                      =   3.1268664380261E+05
(PID.TID 0000.0001) %MON DXV_min                      =   1.5342806404640E+04
(PID.TID 0000.0001) %MON DXV_mean                     =   2.0218161485138E+05
(PID.TID 0000.0001) %MON DXV_sd                       =   9.3728538420912E+04
(PID.TID 0000.0001) %MON YC_max                       =   8.8593750000000E+01
(PID.TID 0000.0001) %MON YC_min                       =  -8.8593750000000E+01
(PID.TID 0000.0001) %MON YC_mean                      =   0.0000000000000E+00
(PID.TID 0000.0001) %MON YC_sd                        =   5.1955180880375E+01
(PID.TID 0000.0001) %MON YG_max                       =   8.7187500000000E+01
(PID.TID 0000.0001) %MON YG_min                       =  -9.0000000000000E+01
(PID.TID 0000.0001) %MON YG_mean                      =  -1.4285714285714E+00
(PID.TID 0000.0001) %MON YG_sd                        =   5.2365595692639E+01
(PID.TID 0000.0001) %MON DYC_max                      =   3.1268664380261E+05
(PID.TID 0000.0001) %MON DYC_min                      =   3.1268664380261E+05
(PID.TID 0000.0001) %MON DYC_mean                     =   3.1268664380263E+05
(PID.TID 0000.0001) %MON DYC_sd                       =   2.4156179279089E-08
(PID.TID 0000.0001) %MON DYF_max                      =   3.1268664380261E+05
(PID.TID 0000.0001) %MON DYF_min                      =   3.1268664380261E+05
(PID.TID 0000.0001) %MON DYF_mean                     =   3.1268664380263E+05
(PID.TID 0000.0001) %MON DYF_sd                       =   2.4156179279089E-08
(PID.TID 0000.0001) %MON DYG_max                      =   3.1268664380261E+05
(PID.TID 0000.0001) %MON DYG_min                      =   3.1268664380261E+05
(PID.TID 0000.0001) %MON DYG_mean                     =   3.1268664380263E+05
(PID.TID 0000.0001) %MON DYG_sd                       =   2.4156179279089E-08
(PID.TID 0000.0001) %MON DYU_max                      =   3.1268664380261E+05
(PID.TID 0000.0001) %MON DYU_min                      =   3.1268664380261E+05
(PID.TID 0000.0001) %MON DYU_mean                     =   3.1268664380263E+05
(PID.TID 0000.0001) %MON DYU_sd                       =   2.4156179279089E-08
(PID.TID 0000.0001) %MON RA_max                       =   9.7733676797555E+10
(PID.TID 0000.0001) %MON RA_min                       =   2.3992270990190E+09
(PID.TID 0000.0001) %MON RA_mean                      =   6.2244185031957E+10
(PID.TID 0000.0001) %MON RA_sd                        =   3.0074496923945E+10
(PID.TID 0000.0001) %MON RAW_max                      =   9.7733676797555E+10
(PID.TID 0000.0001) %MON RAW_min                      =   2.3992270990190E+09
(PID.TID 0000.0001) %MON RAW_mean                     =   6.2244185031957E+10
(PID.TID 0000.0001) %MON RAW_sd                       =   3.0074496923945E+10
(PID.TID 0000.0001) %MON RAS_max                      =   9.7763121221868E+10
(PID.TID 0000.0001) %MON RAS_min                      =   4.7970089933466E+09
(PID.TID 0000.0001) %MON RAS_mean                     =   6.3213143616158E+10
(PID.TID 0000.0001) %MON RAS_sd                       =   2.9304719741649E+10
(PID.TID 0000.0001) %MON RAZ_max                      =   9.7763121221868E+10
(PID.TID 0000.0001) %MON RAZ_min                      =   4.7970089933466E+09
(PID.TID 0000.0001) %MON RAZ_mean                     =   6.3213143616158E+10
(PID.TID 0000.0001) %MON RAZ_sd                       =   2.9304719741649E+10
(PID.TID 0000.0001)  MDSREADFIELD: opening global file: orography_fullcell.bin
(PID.TID 0000.0001) // =======================================================
(PID.TID 0000.0001) // Field Model R_low (ini_masks_etc) at iteration          1
(PID.TID 0000.0001) // CMIN =          1.000000000000000E+32
(PID.TID 0000.0001) // CMAX =         -1.000000000000000E+32
(PID.TID 0000.0001) // CINT =          0.000000000000000E+00
(PID.TID 0000.0001) // SYMBOLS (CMIN->CMAX): -abcdefghijklmnopqrstuvwxyz+
(PID.TID 0000.0001) //                  0.0: .
(PID.TID 0000.0001) // RANGE I (Lo:Hi:Step):(  -2: 131:   1)
(PID.TID 0000.0001) // RANGE J (Lo:Hi:Step):(  67:  -2:  -1)
(PID.TID 0000.0001) // RANGE K (Lo:Hi:Step):(   1:   1:   1)
(PID.TID 0000.0001) // =======================================================
(PID.TID 0000.0001) K =   1
(PID.TID 0000.0001) //                I=7       I=17      I=27      I=37      I=47      I=57      I=67      I=77      I=87      I=97      I=107     I=117     I=127
(PID.TID 0000.0001) // |--J--|**0123456|890123456|890123456|890123456|890123456|890123456|890123456|890123456|890123456|890123456|890123456|890123456|890123456|8901
(PID.TID 0000.0001) //     67 ......................................................................................................................................
(PID.TID 0000.0001) //     66 ......................................................................................................................................
(PID.TID 0000.0001) //     65 ......................................................................................................................................
(PID.TID 0000.0001) //     64 ......................................................................................................................................
(PID.TID 0000.0001) //     63 ......................................................................................................................................
(PID.TID 0000.0001) //     62 ......................................................................................................................................
(PID.TID 0000.0001) //     61 ......................................................................................................................................
(PID.TID 0000.0001) //     60 ......................................................................................................................................
(PID.TID 0000.0001) //     59 ......................................................................................................................................
(PID.TID 0000.0001) //     58 ......................................................................................................................................
(PID.TID 0000.0001) //     57 ......................................................................................................................................
(PID.TID 0000.0001) //     56 ......................................................................................................................................
(PID.TID 0000.0001) //     55 ......................................................................................................................................
(PID.TID 0000.0001) //     54 ......................................................................................................................................
(PID.TID 0000.0001) //     53 ......................................................................................................................................
(PID.TID 0000.0001) //     52 ......................................................................................................................................
(PID.TID 0000.0001) //     51 ......................................................................................................................................
(PID.TID 0000.0001) //     50 ......................................................................................................................................
(PID.TID 0000.0001) //     49 ......................................................................................................................................
(PID.TID 0000.0001) //     48 ......................................................................................................................................
(PID.TID 0000.0001) //     47 ......................................................................................................................................
(PID.TID 0000.0001) //     46 ......................................................................................................................................
(PID.TID 0000.0001) //     45 ......................................................................................................................................
(PID.TID 0000.0001) //     44 ......................................................................................................................................
(PID.TID 0000.0001) //     43 ......................................................................................................................................
(PID.TID 0000.0001) //     42 ......................................................................................................................................
(PID.TID 0000.0001) //     41 ......................................................................................................................................
(PID.TID 0000.0001) //     40 ......................................................................................................................................
(PID.TID 0000.0001) //     39 ......................................................................................................................................
(PID.TID 0000.0001) //     38 ......................................................................................................................................
(PID.TID 0000.0001) //     37 ......................................................................................................................................
(PID.TID 0000.0001) //     36 ......................................................................................................................................
(PID.TID 0000.0001) //     35 ......................................................................................................................................
(PID.TID 0000.0001) //     34 ......................................................................................................................................
(PID.TID 0000.0001) //     33 ......................................................................................................................................
(PID.TID 0000.0001) //     32 ......................................................................................................................................
(PID.TID 0000.0001) //     31 ......................................................................................................................................
(PID.TID 0000.0001) //     30 ......................................................................................................................................
(PID.TID 0000.0001) //     29 ......................................................................................................................................
(PID.TID 0000.0001) //     28 ......................................................................................................................................
(PID.TID 0000.0001) //     27 ......................................................................................................................................
(PID.TID 0000.0001) //     26 ......................................................................................................................................
(PID.TID 0000.0001) //     25 ......................................................................................................................................
(PID.TID 0000.0001) //     24 ......................................................................................................................................
(PID.TID 0000.0001) //     23 ......................................................................................................................................
(PID.TID 0000.0001) //     22 ......................................................................................................................................
(PID.TID 0000.0001) //     21 ......................................................................................................................................
(PID.TID 0000.0001) //     20 ......................................................................................................................................
(PID.TID 0000.0001) //     19 ......................................................................................................................................
(PID.TID 0000.0001) //     18 ......................................................................................................................................
(PID.TID 0000.0001) //     17 ......................................................................................................................................
(PID.TID 0000.0001) //     16 ......................................................................................................................................
(PID.TID 0000.0001) //     15 ......................................................................................................................................
(PID.TID 0000.0001) //     14 ......................................................................................................................................
(PID.TID 0000.0001) //     13 ......................................................................................................................................
(PID.TID 0000.0001) //     12 ......................................................................................................................................
(PID.TID 0000.0001) //     11 ......................................................................................................................................
(PID.TID 0000.0001) //     10 ......................................................................................................................................
(PID.TID 0000.0001) //      9 ......................................................................................................................................
(PID.TID 0000.0001) //      8 ......................................................................................................................................
(PID.TID 0000.0001) //      7 ......................................................................................................................................
(PID.TID 0000.0001) //      6 ......................................................................................................................................
(PID.TID 0000.0001) //      5 ......................................................................................................................................
(PID.TID 0000.0001) //      4 ......................................................................................................................................
(PID.TID 0000.0001) //      3 ......................................................................................................................................
(PID.TID 0000.0001) //      2 ......................................................................................................................................
(PID.TID 0000.0001) //      1 ......................................................................................................................................
(PID.TID 0000.0001) //      0 ......................................................................................................................................
(PID.TID 0000.0001) //     -1 ......................................................................................................................................
(PID.TID 0000.0001) //     -2 ......................................................................................................................................
(PID.TID 0000.0001) // =======================================================
(PID.TID 0000.0001) // END OF FIELD                                          =
(PID.TID 0000.0001) // =======================================================
(PID.TID 0000.0001) 
(PID.TID 0000.0001) // =======================================================
(PID.TID 0000.0001) // Field Model Ro_surf (ini_masks_etc) at iteration          1
(PID.TID 0000.0001) // CMIN =          6.500000000000000E+04
(PID.TID 0000.0001) // CMAX =          1.000000000000000E+05
(PID.TID 0000.0001) // CINT =          1.296296296296296E+03
(PID.TID 0000.0001) // SYMBOLS (CMIN->CMAX): -abcdefghijklmnopqrstuvwxyz+
(PID.TID 0000.0001) //                  0.0: .
(PID.TID 0000.0001) // RANGE I (Lo:Hi:Step):(  -2: 131:   1)
(PID.TID 0000.0001) // RANGE J (Lo:Hi:Step):(  67:  -2:  -1)
(PID.TID 0000.0001) // RANGE K (Lo:Hi:Step):(   1:   1:   1)
(PID.TID 0000.0001) // =======================================================
(PID.TID 0000.0001) K =   1
(PID.TID 0000.0001) //                I=7       I=17      I=27      I=37      I=47      I=57      I=67      I=77      I=87      I=97      I=107     I=117     I=127
(PID.TID 0000.0001) // |--J--|**0123456|890123456|890123456|890123456|890123456|890123456|890123456|890123456|890123456|890123456|890123456|890123456|890123456|8901
(PID.TID 0000.0001) //     67 ......................................................................................................................................
(PID.TID 0000.0001) //     66 ......................................................................................................................................
(PID.TID 0000.0001) //     65 ......................................................................................................................................
(PID.TID 0000.0001) //     64 ++++++++++++++++++++++++++++++++++++++++++++++++++++++++++++++++++++++++++++++++++++++++++++++++++++++++++++++++++++++++++++++++++++++
(PID.TID 0000.0001) //     63 ++++++++++++++++++++++++++++++++++++++++++++++++++++++++++++++++++++++++++++++++++++++++++++++++++++++++++++++++++++++++++++++++++++++
(PID.TID 0000.0001) //     62 +++++++++++++++++++++++++++++++++++++++++++++++++++++++++++++++++++++++++++++++++++++++++++++++++++++++ss+++++++++++++s+++++++++++++++
(PID.TID 0000.0001) //     61 +++++++++++++++++++++++++++++++++++++++++++++++++++++++++++++++++++++++++++++++++++++++++++++++++++sssssss++ssssssssssssssss++++++++++
(PID.TID 0000.0001) //     60 +++++++++++++++++++++++++++++++++++++++++++++++++++++++++++++++++++++++++++++++++++++++++++++++++++++ss+++sssss---------sss+++++++++++
(PID.TID 0000.0001) //     59 +++++++++++++++++++++++++++++++++++++++++++++++++++++++++++++++++++++++++++++++++++++++++++++++++++++++++++++++ss--------sss++++++++++
(PID.TID 0000.0001) //     58 ++++++++++++++++++++++++++++++++++++++++++++++++++++++++++++++++++++++++++++++++++++++++++++++++++++++++++++++++ss------ss++++++++++++
(PID.TID 0000.0001) //     57 +++++++++ss++++++++++++++++++++++++ssss+++++++++ss+ss++++++++++++s++++++++ssssssss+++++++++++++++++++++++++++++++ss----ss+++++++++++++
(PID.TID 0000.0001) //     56 ++++++++ss++++++++++++++++++++++++++sssssss+++++ssssssss+++sssss++++++++++++ss++sssss++++++++++++++++++++++++++++s--ss++++++++++++++++
(PID.TID 0000.0001) //     55 ++++++sss+++++++++++++++++++++++++++ssss++++++++++ssssssssssss++s+++++++++++sssssssssss++++++++++++++++++++++++++s-s++++++++++++++++++
(PID.TID 0000.0001) //     54 +++++ss+++++++++++++++++++++++++++++s++ssssss++s+++sssssss++++++++++++++++++s++sssssssss+++++s+++++++++++++++++++++++++++++++++++++++s
(PID.TID 0000.0001) //     53 ++++++++++++++++++++++++++++++++++++++++sssssssssssss++++++++++++++++++++++++++++++ssssssss+ss++++++++++++++++++++++++++++++++++++++++
(PID.TID 0000.0001) //     52 ++++++++++++++++++++++++++++++++++sssssssssssssssss++++++++s+++++++++++++++++++++++++sssssssss+++++++++++ssss+++++++++++++++++++++++++
(PID.TID 0000.0001) //     51 +++++++++++++++++++++++++++++++++sssssssssssssss+sss++++++++++++++++++++++++++++++++++sssssssss++++++++++ssss+++++++++++++++++++++++++
(PID.TID 0000.0001) //     50 +++++++ssss++++++++++++++++sssssss-ss-sssssssss+++++s++++++++++++++++++++++++++++++++++sssssssss++++++++++++++++++++++++++++++++++++++
(PID.TID 0000.0001) //     49 ++++sssss++ss+++++++++++++++sssssssss--ssssssss++++s+++++++++++++++++++++++++++++++++++sssssssss++++++++++++++++++++++++++++++++++++ss
(PID.TID 0000.0001) //     48 +++s+++++sss+++++sss+++++++ssss--sssssssssssss++ss+++++++++++++++++++++++++++++++++++++ssss-sssss++++++++++++++++++++++++++++++++++s++
(PID.TID 0000.0001) //     47 ssss++++++s+++ssssss+++++++ss--sssssssssssssss+ss++++++++++++++++++++++++++++++++++++++sssss--sss+++++++++++++++++++++++++++++++ssss++
(PID.TID 0000.0001) //     46 +s+++++++++++sssssss+++s++ss---ss-------ssss++++++++++++++++++++++++++++++++++++++++++++ssss--ss++++++s++++++++++++++++++++++++++s++++
(PID.TID 0000.0001) //     45 +++sss++++++++++s++sssssss--------------sss+++++++++++++++++++++++++++++++++++++++++++++ssssssss+++++s+++++++++++++++++++++++++++++sss
(PID.TID 0000.0001) //     44 sssss+++++++++++ss++s-ssssss+s----------sss++++++++++++++++++++++++++++++++++++++++++++++++sssss++++++++++++++++++++++++++++++++sssss+
(PID.TID 0000.0001) //     43 ssss++ss+++++++ssss++sssssss+++s--------+ss++++++++++++++++++++++++++++++++++++++++++++++++ssss+++++++++++++++++++++++++++++++++ssss++
(PID.TID 0000.0001) //     42 ++++sssss+++++++ssss+++ssss++++++sssss--sss+s+++++++++++++++++++++++++++++++++++++++++++++++sss++++++++++++++++++++++++++++++++s++++ss
(PID.TID 0000.0001) //     41 ++++sssssssss++++sss+++++++++ss+ss++sssss++++++++++++++++++++++++++++++++++++++++++++++++++++sss++++++++++++++++++++++++++++++++++++ss
(PID.TID 0000.0001) //     40 ++++sssssssss++s+sss++++++++++++++++ssss++++++++++++++++++++++++++++++++++++++++++++++++++++++ss++++++++++++++++++++++++++++++++++++ss
(PID.TID 0000.0001) //     39 ++++ssss++sss++s++ssss+++++++ss+++++++ss++++++++++++++++++++++++++++++++++++++++++++++++++++++sss+++++++++++++++++++++++++++++++++++ss
(PID.TID 0000.0001) //     38 ++++++s+++sssssss+sss+++++++++s+++++++++++++++++++++++++++++++++++++++++++++++++++++++++++++++++++ss++++++++++++++++++++++++++++++++++
(PID.TID 0000.0001) //     37 +++++s++++ssssssss++++++++++++s+++++++++++++++++++++++++++++++++++++++++++++++++++++++++++++++++++++s++++++++++++++++++++++++++++++++s
(PID.TID 0000.0001) //     36 s++++sss++sss++s-ssss+++++++++++++++++++++++++++++++++++++++++++++++++++++++++++++++++++++++++++++++++++++s++++++++++++++++++++ss++++s
(PID.TID 0000.0001) //     35 ++++++ssssssss+sssss++++++++++++++++++++++++++++++++++++++++++++++++++++++++++++++++++++++++++++++++++++ss+s++++++++++++++++++++++++++
(PID.TID 0000.0001) //     34 +++++++sssssssssss+++++++++++++++++++s++++++s+++++++++++++++++++++++++++++++++++++++++++++++++++++++++++s++sss++++++++++++++++++++++++
(PID.TID 0000.0001) //     33 +++++++ss+++sssss++++++++++++++++++++++++++ss++++++++++++++++++++++++++++++++++++++++++++++++++++++++++ss+++++++++++++++++++++++++++++
(PID.TID 0000.0001) //     32 +++++++ss++sss+ss+++++++++++++++++++++++++++++++++++++++++++++++++++++++++++++++++++++++++++++++++++++ss++++++++++++++++++++++++++++++
(PID.TID 0000.0001) //     31 ++++++++sssssssss++++++++++++++++++++++++++++++++++sss++++++++++++++++++++++++++++++++++++++++++++++++ss++++++++++++++++++++++++++++++
(PID.TID 0000.0001) //     30 ++++++++sssssssss+++++++++++++++++++++++++++++++++++++s++++++++++++++++++++++++++++++++++++++++++++++++s++++++++++++s+++++++++++++++++
(PID.TID 0000.0001) //     29 ++++++++sssssssss++++++++++++++++++++++++++++++++++++++++++++++++++++++++++++++++++++++++++++++++++++++-s+++++++++sss+++++++++++++++++
(PID.TID 0000.0001) //     28 ++++++++sssssssss++++++++++++++++++++++++++++++++++++++++++++++++++++++++++++++++++++++++++++++++++++++s-s++++++++sss+++++++++++++++++
(PID.TID 0000.0001) //     27 +++++++ssssssssss+++s+++++++++++++++++++++++++++++++++++++++++++++++++++++++++++++++++++++++++++++++++++s--s+++s+ssss+++++++++++++++++
(PID.TID 0000.0001) //     26 +++++++ssssssss++++s++++++++++++++++++++++++++++++++++s+++++++++++++++++++++++++++++++++++++++++++++++++++--s+++ssss++++++++++++++++++
(PID.TID 0000.0001) //     25 ++++++++sssssss++++s+++++++++++++++++++++++++++++ss+++++++++++++++++++++++++++++++++++++++++++++++++++++++--s++++sss++++++++++++++++++
(PID.TID 0000.0001) //     24 ++++++++ssssss+++++s++++++++++++++++++++++++sss+sss+++++++++++++++++++++++++++++++++++++++++++++++++++++++--++++ss++++++++++++++++++++
(PID.TID 0000.0001) //     23 ++++++++ssssss+++++++++++++++++++++++++++++++sssss++++++++++++++++++++++++++++++++++++++++++++++++++++++++--++++ss++++++++++++++++++++
(PID.TID 0000.0001) //     22 +++++++++sssss+++++++++++++++++++++++++++++++ss+++++++++s+++++++++++++++++++++++++++++++++++++++++++++++++-s++++++++++++++++++++++++++
(PID.TID 0000.0001) //     21 ++++++++++sss+++++++++++++++++++++++++++++++++++++++++++s++++++++++++++++++++++++++++++++++++++++++++++++sss++++++++++++++++++++++++++
(PID.TID 0000.0001) //     20 +++++++++++++++++++++++++++++++++++++++++++++++++++++++s+++++++++++++++++++++++++++++++++++++++++++++++++ss+++++++++++++++++++++++++++
(PID.TID 0000.0001) //     19 +++++++++++++++++++++++++++++++++++++++++++++++++++++++++++++++++++++++++++++++++++++++++++++++++++++++++ss+++++++++++++++++++++++++++
(PID.TID 0000.0001) //     18 +++++++++++++++++++++++++++++++++++++++++++++++++++++++++++++++++++++++++++++++++++++++++++++++++++++++++ss+++++++++++++++++++++++++++
(PID.TID 0000.0001) //     17 +++++++++++++++++++++++++++++++++++++++++++++++++++++++++++++++++++++++++++++++++++++++++++++++++++++++++ss+++++++++++++++++++++++++++
(PID.TID 0000.0001) //     16 +++++++++++++++++++++++++++++++++++++++++++++++++++++++++++++++++++++++++++++++++++++++++++++++++++++++++ss+++++++++++++++++++++++++++
(PID.TID 0000.0001) //     15 ++++++++++++++++++++++++++++++++++++++++++++++++++++++++++++++++++++++++++++++++++++++++++++++++++++++++ss++++++++++++++++++++++++++++
(PID.TID 0000.0001) //     14 ++++++++++++++++++++++++++++++++++++++++++++++++++++++++++++++++++++++++++++++++++++++++++++++++++++++++++++++++++++++++++++++++++++++
(PID.TID 0000.0001) //     13 ++++++++++++++++++++++++++++++++++++++++++++++++++++++++++++++++++++++++++++++++++++++++++++++++++++++++++++++++++++++++++++++++++++++
(PID.TID 0000.0001) //     12 ++++++++++++++++++++++++++++++++++++++++++++++++++++++++++++++++++++++++++++++++++++++++++++++++++++++++++++++++++++++++++++++++++++++
(PID.TID 0000.0001) //     11 ++++++++++++++++++++++++++++++++++++++++++++++++++++++++++++++++++++++++++++++++++++++++++++++++++++++++++++++++++++++++++++++++++++++
(PID.TID 0000.0001) //     10 ++++++++++++++++++++++++++++++++++++++++++++++++++++++++++++++++++++++++++++++++++++++++++++++++++++++++++++++++++++++++++++++++++++++
(PID.TID 0000.0001) //      9 +++++++++++++++++++++++++++++++++++++++s++++++++++++++++++++++++++++++++++++++++++++++++++++++++++++++++++++++++++++++++++++++++++++++
(PID.TID 0000.0001) //      8 ++++++++++++++++++ssss-ssss++++ssss-------ssssssss---sssss+++++++++++++++++++++++++++++++++++++++++++++++++s++++++++++++++++++++++++++
(PID.TID 0000.0001) //      7 sssssssssssssssss--------sssss--------------------------sssssss+++++++++++++++++++++++++++++++++++++++++++sss+++++++++++++++++++ssssss
(PID.TID 0000.0001) //      6 ------------------------ssss------------------------------ssss++++++++++++++++++++++++++++++++++sssssssssssss++++++++++++++ssss-------
(PID.TID 0000.0001) //      5 -----------------------------------------------------------ss++++++++++++++++++sssssssssssssssssssssss++++++++++++++++++ssss----------
(PID.TID 0000.0001) //      4 --------------------------------------------------------ssss++++++++++++++++++++sssssssssssssss---sssss+++++++++++++++++ssss----------
(PID.TID 0000.0001) //      3 ----------------------------------------------------------ssssss++++++++++++++++ssssssssssssss----sssssssss+++sssssssssssss-----------
(PID.TID 0000.0001) //      2 ---------------------------------------------------------------------sssssssssssssssssssssssssssssssssssssssssssssssss----------------
(PID.TID 0000.0001) //      1 --------------------------------------------------------------------------------------------------------------------------------------
(PID.TID 0000.0001) //      0 ......................................................................................................................................
(PID.TID 0000.0001) //     -1 ......................................................................................................................................
(PID.TID 0000.0001) //     -2 ......................................................................................................................................
(PID.TID 0000.0001) // =======================================================
(PID.TID 0000.0001) // END OF FIELD                                          =
(PID.TID 0000.0001) // =======================================================
(PID.TID 0000.0001) 
(PID.TID 0000.0001) // =======================================================
(PID.TID 0000.0001) // Field hFacC at iteration          1
(PID.TID 0000.0001) // CMIN =          1.000000000000000E+00
(PID.TID 0000.0001) // CMAX =          1.000000000000000E+00
(PID.TID 0000.0001) // CINT =          0.000000000000000E+00
(PID.TID 0000.0001) // SYMBOLS (CMIN->CMAX): -abcdefghijklmnopqrstuvwxyz+
(PID.TID 0000.0001) //                  0.0: .
(PID.TID 0000.0001) // RANGE I (Lo:Hi:Step):(  -2: 131:   1)
(PID.TID 0000.0001) // RANGE J (Lo:Hi:Step):(  67:  -2:  -1)
(PID.TID 0000.0001) // RANGE K (Lo:Hi:Step):(   1:   1:   1)
(PID.TID 0000.0001) // =======================================================
(PID.TID 0000.0001) K =   1
(PID.TID 0000.0001) //                I=7       I=17      I=27      I=37      I=47      I=57      I=67      I=77      I=87      I=97      I=107     I=117     I=127
(PID.TID 0000.0001) // |--J--|**0123456|890123456|890123456|890123456|890123456|890123456|890123456|890123456|890123456|890123456|890123456|890123456|890123456|8901
(PID.TID 0000.0001) //     67 ......................................................................................................................................
(PID.TID 0000.0001) //     66 ......................................................................................................................................
(PID.TID 0000.0001) //     65 ......................................................................................................................................
(PID.TID 0000.0001) //     64 --------------------------------------------------------------------------------------------------------------------------------------
(PID.TID 0000.0001) //     63 --------------------------------------------------------------------------------------------------------------------------------------
(PID.TID 0000.0001) //     62 -------------------------------------------------------------------------------------------------------..-------------.---------------
(PID.TID 0000.0001) //     61 ---------------------------------------------------------------------------------------------------.......--................----------
(PID.TID 0000.0001) //     60 -----------------------------------------------------------------------------------------------------..---.................-----------
(PID.TID 0000.0001) //     59 ---------------------------------------------------------------------------------------------------------------.............----------
(PID.TID 0000.0001) //     58 ----------------------------------------------------------------------------------------------------------------..........------------
(PID.TID 0000.0001) //     57 ---------..------------------------....---------..-..------------.--------........-------------------------------........-------------
(PID.TID 0000.0001) //     56 --------..--------------------------.......-----........---.....------------..--.....----------------------------.....----------------
(PID.TID 0000.0001) //     55 ------...---------------------------....----------............--.-----------...........--------------------------...------------------
(PID.TID 0000.0001) //     54 -----..-----------------------------.--......--.---.......------------------.--.........-----.---------------------------------------.
(PID.TID 0000.0001) //     53 ----------------------------------------.............------------------------------........-..----------------------------------------
(PID.TID 0000.0001) //     52 ----------------------------------.................--------.-------------------------.........-----------....-------------------------
(PID.TID 0000.0001) //     51 ---------------------------------...............-...----------------------------------.........----------....-------------------------
(PID.TID 0000.0001) //     50 -------....----------------....................-----.----------------------------------.........--------------------------------------
(PID.TID 0000.0001) //     49 ----.....--..---------------...................----.-----------------------------------.........------------------------------------..
(PID.TID 0000.0001) //     48 ---.-----...-----...-------...................--..-------------------------------------..........----------------------------------.--
(PID.TID 0000.0001) //     47 ....------.---......-------...................-..--------------------------------------..........-------------------------------....--
(PID.TID 0000.0001) //     46 -.-----------.......---.--..................--------------------------------------------........------.--------------------------.----
(PID.TID 0000.0001) //     45 ---...----------.--........................---------------------------------------------........-----.-----------------------------...
(PID.TID 0000.0001) //     44 .....-----------..--........-..............------------------------------------------------.....--------------------------------.....-
(PID.TID 0000.0001) //     43 ....--..-------....--.......---.........-..------------------------------------------------....---------------------------------....--
(PID.TID 0000.0001) //     42 ----.....-------....---....------..........-.-----------------------------------------------...--------------------------------.----..
(PID.TID 0000.0001) //     41 ----.........----...---------..-..--.....----------------------------------------------------...------------------------------------..
(PID.TID 0000.0001) //     40 ----.........--.-...----------------....------------------------------------------------------..------------------------------------..
(PID.TID 0000.0001) //     39 ----....--...--.--....-------..-------..------------------------------------------------------...-----------------------------------..
(PID.TID 0000.0001) //     38 ------.---.......-...---------.-------------------------------------------------------------------..----------------------------------
(PID.TID 0000.0001) //     37 -----.----........------------.---------------------------------------------------------------------.--------------------------------.
(PID.TID 0000.0001) //     36 .----...--...--......-------------------------------------------------------------------------------------.--------------------..----.
(PID.TID 0000.0001) //     35 ------........-.....------------------------------------------------------------------------------------..-.--------------------------
(PID.TID 0000.0001) //     34 -------...........-------------------.------.-----------------------------------------------------------.--...------------------------
(PID.TID 0000.0001) //     33 -------..---.....--------------------------..----------------------------------------------------------..-----------------------------
(PID.TID 0000.0001) //     32 -------..--...-..-------------------------------------------------------------------------------------..------------------------------
(PID.TID 0000.0001) //     31 --------.........----------------------------------...------------------------------------------------..------------------------------
(PID.TID 0000.0001) //     30 --------.........-------------------------------------.------------------------------------------------.------------.-----------------
(PID.TID 0000.0001) //     29 --------.........--------------------------------------------------------------------------------------..---------...-----------------
(PID.TID 0000.0001) //     28 --------.........--------------------------------------------------------------------------------------...--------...-----------------
(PID.TID 0000.0001) //     27 -------..........---.-----------------------------------------------------------------------------------....---.-....-----------------
(PID.TID 0000.0001) //     26 -------........----.----------------------------------.---------------------------------------------------...---....------------------
(PID.TID 0000.0001) //     25 --------.......----.-----------------------------..-------------------------------------------------------...----...------------------
(PID.TID 0000.0001) //     24 --------......-----.------------------------...-...-------------------------------------------------------..----..--------------------
(PID.TID 0000.0001) //     23 --------......-------------------------------.....--------------------------------------------------------..----..--------------------
(PID.TID 0000.0001) //     22 ---------.....-------------------------------..---------.-------------------------------------------------..--------------------------
(PID.TID 0000.0001) //     21 ----------...-------------------------------------------.------------------------------------------------...--------------------------
(PID.TID 0000.0001) //     20 -------------------------------------------------------.-------------------------------------------------..---------------------------
(PID.TID 0000.0001) //     19 ---------------------------------------------------------------------------------------------------------..---------------------------
(PID.TID 0000.0001) //     18 ---------------------------------------------------------------------------------------------------------..---------------------------
(PID.TID 0000.0001) //     17 ---------------------------------------------------------------------------------------------------------..---------------------------
(PID.TID 0000.0001) //     16 ---------------------------------------------------------------------------------------------------------..---------------------------
(PID.TID 0000.0001) //     15 --------------------------------------------------------------------------------------------------------..----------------------------
(PID.TID 0000.0001) //     14 --------------------------------------------------------------------------------------------------------------------------------------
(PID.TID 0000.0001) //     13 --------------------------------------------------------------------------------------------------------------------------------------
(PID.TID 0000.0001) //     12 --------------------------------------------------------------------------------------------------------------------------------------
(PID.TID 0000.0001) //     11 --------------------------------------------------------------------------------------------------------------------------------------
(PID.TID 0000.0001) //     10 --------------------------------------------------------------------------------------------------------------------------------------
(PID.TID 0000.0001) //      9 ---------------------------------------.----------------------------------------------------------------------------------------------
(PID.TID 0000.0001) //      8 ------------------.........----...........................-------------------------------------------------.--------------------------
(PID.TID 0000.0001) //      7 ...............................................................-------------------------------------------...-------------------......
(PID.TID 0000.0001) //      6 ..............................................................----------------------------------.............--------------...........
(PID.TID 0000.0001) //      5 .............................................................------------------.......................------------------..............
(PID.TID 0000.0001) //      4 ............................................................--------------------.......................-----------------..............
(PID.TID 0000.0001) //      3 ................................................................----------------...........................---........................
(PID.TID 0000.0001) //      2 ......................................................................................................................................
(PID.TID 0000.0001) //      1 ......................................................................................................................................
(PID.TID 0000.0001) //      0 ......................................................................................................................................
(PID.TID 0000.0001) //     -1 ......................................................................................................................................
(PID.TID 0000.0001) //     -2 ......................................................................................................................................
(PID.TID 0000.0001) // =======================================================
(PID.TID 0000.0001) // END OF FIELD                                          =
(PID.TID 0000.0001) // =======================================================
(PID.TID 0000.0001) 
(PID.TID 0000.0001) // =======================================================
(PID.TID 0000.0001) // Field hFacW at iteration          1
(PID.TID 0000.0001) // CMIN =          1.000000000000000E+00
(PID.TID 0000.0001) // CMAX =          1.000000000000000E+00
(PID.TID 0000.0001) // CINT =          0.000000000000000E+00
(PID.TID 0000.0001) // SYMBOLS (CMIN->CMAX): -abcdefghijklmnopqrstuvwxyz+
(PID.TID 0000.0001) //                  0.0: .
(PID.TID 0000.0001) // RANGE I (Lo:Hi:Step):(  -2: 131:   1)
(PID.TID 0000.0001) // RANGE J (Lo:Hi:Step):(  67:  -2:  -1)
(PID.TID 0000.0001) // RANGE K (Lo:Hi:Step):(   1:   1:   1)
(PID.TID 0000.0001) // =======================================================
(PID.TID 0000.0001) K =   1
(PID.TID 0000.0001) //                I=7       I=17      I=27      I=37      I=47      I=57      I=67      I=77      I=87      I=97      I=107     I=117     I=127
(PID.TID 0000.0001) // |--J--|**0123456|890123456|890123456|890123456|890123456|890123456|890123456|890123456|890123456|890123456|890123456|890123456|890123456|8901
(PID.TID 0000.0001) //     67 .................................................................---------------............................--........................
(PID.TID 0000.0001) //     66 ......................................................................................................................................
(PID.TID 0000.0001) //     65 ......................................................................................................................................
(PID.TID 0000.0001) //     64 --------------------------------------------------------------------------------------------------------------------------------------
(PID.TID 0000.0001) //     63 --------------------------------------------------------------------------------------------------------------------------------------
(PID.TID 0000.0001) //     62 -------------------------------------------------------------------------------------------------------...------------..--------------
(PID.TID 0000.0001) //     61 ---------------------------------------------------------------------------------------------------........-.................---------
(PID.TID 0000.0001) //     60 -----------------------------------------------------------------------------------------------------...--..................----------
(PID.TID 0000.0001) //     59 ---------------------------------------------------------------------------------------------------------------..............---------
(PID.TID 0000.0001) //     58 ----------------------------------------------------------------------------------------------------------------...........-----------
(PID.TID 0000.0001) //     57 ---------...-----------------------.....--------......-----------..-------.........------------------------------.........------------
(PID.TID 0000.0001) //     56 --------...-------------------------........----.........--......-----------...-......---------------------------......---------------
(PID.TID 0000.0001) //     55 ------....--------------------------.....---------.............-..----------............-------------------------....-----------------
(PID.TID 0000.0001) //     54 -----...----------------------------..-.......-..--........-----------------..-..........----..--------------------------------------.
(PID.TID 0000.0001) //     53 ----------------------------------------..............-----------------------------............---------------------------------------
(PID.TID 0000.0001) //     52 ----------------------------------..................-------..------------------------..........----------.....------------------------
(PID.TID 0000.0001) //     51 ---------------------------------....................---------------------------------..........---------.....------------------------
(PID.TID 0000.0001) //     50 -------.....---------------.....................----..---------------------------------..........-------------------------------------
(PID.TID 0000.0001) //     49 ----......-...--------------....................---..----------------------------------..........-----------------------------------..
(PID.TID 0000.0001) //     48 ---..----....----....------....................-...------------------------------------...........---------------------------------..-
(PID.TID 0000.0001) //     47 .....-----..--.......------.......................-------------------------------------...........------------------------------.....-
(PID.TID 0000.0001) //     46 -..----------........--..-...................-------------------------------------------.........-----..-------------------------..---
(PID.TID 0000.0001) //     45 ---....---------..-.........................--------------------------------------------.........----..----------------------------...
(PID.TID 0000.0001) //     44 ......----------...-........................-----------------------------------------------......-------------------------------......
(PID.TID 0000.0001) //     43 .....-...------.....-........--.............-----------------------------------------------.....--------------------------------.....-
(PID.TID 0000.0001) //     42 .---......------.....--.....-----.............----------------------------------------------....-------------------------------..---..
(PID.TID 0000.0001) //     41 ----..........---....--------......-......---------------------------------------------------....-----------------------------------..
(PID.TID 0000.0001) //     40 ----..........-......---------------.....-----------------------------------------------------...-----------------------------------..
(PID.TID 0000.0001) //     39 ----.....-....-..-.....------...------...-----------------------------------------------------....----------------------------------..
(PID.TID 0000.0001) //     38 ------..--............--------..------------------------------------------------------------------...---------------------------------
(PID.TID 0000.0001) //     37 -----..---.........-----------..--------------------------------------------------------------------..-------------------------------.
(PID.TID 0000.0001) //     36 ..---....-....-.......------------------------------------------------------------------------------------..-------------------...---.
(PID.TID 0000.0001) //     35 ------...............-----------------------------------------------------------------------------------.....-------------------------
(PID.TID 0000.0001) //     34 -------............------------------..-----..----------------------------------------------------------..-....-----------------------
(PID.TID 0000.0001) //     33 -------...--......-------------------------...---------------------------------------------------------...----------------------------
(PID.TID 0000.0001) //     32 -------...-.......------------------------------------------------------------------------------------...-----------------------------
(PID.TID 0000.0001) //     31 --------..........---------------------------------....-----------------------------------------------...-----------------------------
(PID.TID 0000.0001) //     30 --------..........------------------------------------..-----------------------------------------------..-----------..----------------
(PID.TID 0000.0001) //     29 --------..........-------------------------------------------------------------------------------------...--------....----------------
(PID.TID 0000.0001) //     28 --------..........-------------------------------------------------------------------------------------....-------....----------------
(PID.TID 0000.0001) //     27 -------...........--..----------------------------------------------------------------------------------.....--.......----------------
(PID.TID 0000.0001) //     26 -------.........---..---------------------------------..--------------------------------------------------....--.....-----------------
(PID.TID 0000.0001) //     25 --------........---..----------------------------...------------------------------------------------------....---....-----------------
(PID.TID 0000.0001) //     24 --------.......----..-----------------------........------------------------------------------------------...---...-------------------
(PID.TID 0000.0001) //     23 --------.......------------------------------......-------------------------------------------------------...---...-------------------
(PID.TID 0000.0001) //     22 ---------......------------------------------...--------..------------------------------------------------...-------------------------
(PID.TID 0000.0001) //     21 ----------....------------------------------------------..-----------------------------------------------....-------------------------
(PID.TID 0000.0001) //     20 -------------------------------------------------------..------------------------------------------------...--------------------------
(PID.TID 0000.0001) //     19 ---------------------------------------------------------------------------------------------------------...--------------------------
(PID.TID 0000.0001) //     18 ---------------------------------------------------------------------------------------------------------...--------------------------
(PID.TID 0000.0001) //     17 ---------------------------------------------------------------------------------------------------------...--------------------------
(PID.TID 0000.0001) //     16 ---------------------------------------------------------------------------------------------------------...--------------------------
(PID.TID 0000.0001) //     15 --------------------------------------------------------------------------------------------------------...---------------------------
(PID.TID 0000.0001) //     14 --------------------------------------------------------------------------------------------------------------------------------------
(PID.TID 0000.0001) //     13 --------------------------------------------------------------------------------------------------------------------------------------
(PID.TID 0000.0001) //     12 --------------------------------------------------------------------------------------------------------------------------------------
(PID.TID 0000.0001) //     11 --------------------------------------------------------------------------------------------------------------------------------------
(PID.TID 0000.0001) //     10 --------------------------------------------------------------------------------------------------------------------------------------
(PID.TID 0000.0001) //      9 ---------------------------------------..---------------------------------------------------------------------------------------------
(PID.TID 0000.0001) //      8 ------------------..........---............................------------------------------------------------..-------------------------
(PID.TID 0000.0001) //      7 ................................................................------------------------------------------....------------------......
(PID.TID 0000.0001) //      6 ...............................................................---------------------------------..............-------------...........
(PID.TID 0000.0001) //      5 ..............................................................-----------------........................-----------------..............
(PID.TID 0000.0001) //      4 .............................................................-------------------........................----------------..............
(PID.TID 0000.0001) //      3 .................................................................---------------............................--........................
(PID.TID 0000.0001) //      2 ......................................................................................................................................
(PID.TID 0000.0001) //      1 ......................................................................................................................................
(PID.TID 0000.0001) //      0 --------------------------------------------------------------------------------------------------------------------------------------
(PID.TID 0000.0001) //     -1 --------------------------------------------------------------------------------------------------------------------------------------
(PID.TID 0000.0001) //     -2 -------------------------------------------------------------------------------------------------------...------------..--------------
(PID.TID 0000.0001) // =======================================================
(PID.TID 0000.0001) // END OF FIELD                                          =
(PID.TID 0000.0001) // =======================================================
(PID.TID 0000.0001) 
(PID.TID 0000.0001) // =======================================================
(PID.TID 0000.0001) // Field hFacS at iteration          1
(PID.TID 0000.0001) // CMIN =          1.000000000000000E+00
(PID.TID 0000.0001) // CMAX =          1.000000000000000E+00
(PID.TID 0000.0001) // CINT =          0.000000000000000E+00
(PID.TID 0000.0001) // SYMBOLS (CMIN->CMAX): -abcdefghijklmnopqrstuvwxyz+
(PID.TID 0000.0001) //                  0.0: .
(PID.TID 0000.0001) // RANGE I (Lo:Hi:Step):(  -2: 131:   1)
(PID.TID 0000.0001) // RANGE J (Lo:Hi:Step):(  67:  -2:  -1)
(PID.TID 0000.0001) // RANGE K (Lo:Hi:Step):(   1:   1:   1)
(PID.TID 0000.0001) // =======================================================
(PID.TID 0000.0001) K =   1
(PID.TID 0000.0001) //                I=7       I=17      I=27      I=37      I=47      I=57      I=67      I=77      I=87      I=97      I=107     I=117     I=127
(PID.TID 0000.0001) // |--J--|**0123456|890123456|890123456|890123456|890123456|890123456|890123456|890123456|890123456|890123456|890123456|890123456|890123456|8901
(PID.TID 0000.0001) //     67 ......................................................................................................................................
(PID.TID 0000.0001) //     66 ......................................................................................................................................
(PID.TID 0000.0001) //     65 ......................................................................................................................................
(PID.TID 0000.0001) //     64 --------------------------------------------------------------------------------------------------------------------------------------
(PID.TID 0000.0001) //     63 -------------------------------------------------------------------------------------------------------..-------------.---------------
(PID.TID 0000.0001) //     62 ---------------------------------------------------------------------------------------------------.......--................----------
(PID.TID 0000.0001) //     61 ---------------------------------------------------------------------------------------------------.........................----------
(PID.TID 0000.0001) //     60 -----------------------------------------------------------------------------------------------------..---..................----------
(PID.TID 0000.0001) //     59 ---------------------------------------------------------------------------------------------------------------.............----------
(PID.TID 0000.0001) //     58 ---------..------------------------....---------..-..------------.--------........------------------------------..........------------
(PID.TID 0000.0001) //     57 --------...------------------------........-----........---.....-.--------...........----------------------------........-------------
(PID.TID 0000.0001) //     56 ------....--------------------------.......-----.................-----------...........--------------------------.....----------------
(PID.TID 0000.0001) //     55 -----....---------------------------.........--.--............--.-----------............-----.-------------------...-----------------.
(PID.TID 0000.0001) //     54 -----..-----------------------------.--...................------------------.--............-..---------------------------------------.
(PID.TID 0000.0001) //     53 ----------------------------------...................------.-----------------------...........-----------....-------------------------
(PID.TID 0000.0001) //     52 ---------------------------------...................-------.-------------------------..........----------....-------------------------
(PID.TID 0000.0001) //     51 -------....----------------.....................-....---------------------------------..........---------....-------------------------
(PID.TID 0000.0001) //     50 ----.........--------------....................----..----------------------------------.........------------------------------------..
(PID.TID 0000.0001) //     49 ---..........----...-------....................-..-.-----------------------------------..........----------------------------------...
(PID.TID 0000.0001) //     48 ....-----...--......-------...................-...-------------------------------------..........-------------------------------....--
(PID.TID 0000.0001) //     47 ....------.--.......---.--....................-..--------------------------------------..........-----.-------------------------....--
(PID.TID 0000.0001) //     46 -.-...-------...............................--------------------------------------------........-----..--------------------------.-...
(PID.TID 0000.0001) //     45 ......----------..-........................---------------------------------------------........-----.--------------------------......
(PID.TID 0000.0001) //     44 .....-..-------....-........-..............------------------------------------------------.....--------------------------------.....-
(PID.TID 0000.0001) //     43 .........------.....-.......---............-.----------------------------------------------....--------------------------------.......
(PID.TID 0000.0001) //     42 ----.........---....---....--..-...........-.-----------------------------------------------....-------------------------------.----..
(PID.TID 0000.0001) //     41 ----.........--.-...---------..-..--.....----------------------------------------------------...------------------------------------..
(PID.TID 0000.0001) //     40 ----.........--.-.....-------..-----....------------------------------------------------------...-----------------------------------..
(PID.TID 0000.0001) //     39 ----....--.......-....-------..-------..------------------------------------------------------...-..--------------------------------..
(PID.TID 0000.0001) //     38 -----..---...........---------.-------------------------------------------------------------------...--------------------------------.
(PID.TID 0000.0001) //     37 .----...--...........---------.---------------------------------------------------------------------.-----.--------------------..----.
(PID.TID 0000.0001) //     36 .----.........-......-----------------------------------------------------------------------------------....-------------------..----.
(PID.TID 0000.0001) //     35 ------..............-----------------.------.-----------------------------------------------------------..-...------------------------
(PID.TID 0000.0001) //     34 -------...........-------------------.-----..----------------------------------------------------------..--...------------------------
(PID.TID 0000.0001) //     33 -------..--......--------------------------..---------------------------------------------------------...-----------------------------
(PID.TID 0000.0001) //     32 -------..........----------------------------------...------------------------------------------------..------------------------------
(PID.TID 0000.0001) //     31 --------.........----------------------------------....-----------------------------------------------..------------.-----------------
(PID.TID 0000.0001) //     30 --------.........-------------------------------------.------------------------------------------------..---------...-----------------
(PID.TID 0000.0001) //     29 --------.........--------------------------------------------------------------------------------------...--------...-----------------
(PID.TID 0000.0001) //     28 -------..........---.----------------------------------------------------------------------------------.....---.-....-----------------
(PID.TID 0000.0001) //     27 -------..........--..---------------------------------.-------------------------------------------------.....--......-----------------
(PID.TID 0000.0001) //     26 -------........----.-----------------------------..---.---------------------------------------------------...---....------------------
(PID.TID 0000.0001) //     25 --------.......----.------------------------...-...-------------------------------------------------------...---....------------------
(PID.TID 0000.0001) //     24 --------......-----.------------------------.......-------------------------------------------------------..----..--------------------
(PID.TID 0000.0001) //     23 --------......-------------------------------.....------.-------------------------------------------------..----..--------------------
(PID.TID 0000.0001) //     22 ---------.....-------------------------------..---------.------------------------------------------------...--------------------------
(PID.TID 0000.0001) //     21 ----------...------------------------------------------..------------------------------------------------...--------------------------
(PID.TID 0000.0001) //     20 -------------------------------------------------------.-------------------------------------------------..---------------------------
(PID.TID 0000.0001) //     19 ---------------------------------------------------------------------------------------------------------..---------------------------
(PID.TID 0000.0001) //     18 ---------------------------------------------------------------------------------------------------------..---------------------------
(PID.TID 0000.0001) //     17 ---------------------------------------------------------------------------------------------------------..---------------------------
(PID.TID 0000.0001) //     16 --------------------------------------------------------------------------------------------------------...---------------------------
(PID.TID 0000.0001) //     15 --------------------------------------------------------------------------------------------------------..----------------------------
(PID.TID 0000.0001) //     14 --------------------------------------------------------------------------------------------------------------------------------------
(PID.TID 0000.0001) //     13 --------------------------------------------------------------------------------------------------------------------------------------
(PID.TID 0000.0001) //     12 --------------------------------------------------------------------------------------------------------------------------------------
(PID.TID 0000.0001) //     11 --------------------------------------------------------------------------------------------------------------------------------------
(PID.TID 0000.0001) //     10 ---------------------------------------.----------------------------------------------------------------------------------------------
(PID.TID 0000.0001) //      9 ------------------.........----...........................-------------------------------------------------.--------------------------
(PID.TID 0000.0001) //      8 ...............................................................-------------------------------------------...-------------------......
(PID.TID 0000.0001) //      7 ...............................................................---------------------------------.............--------------...........
(PID.TID 0000.0001) //      6 ..............................................................-----------------..............................-----------..............
(PID.TID 0000.0001) //      5 .............................................................------------------........................-----------------..............
(PID.TID 0000.0001) //      4 ................................................................----------------...........................---........................
(PID.TID 0000.0001) //      3 ......................................................................................................................................
(PID.TID 0000.0001) //      2 ......................................................................................................................................
(PID.TID 0000.0001) //      1 ......................................................................................................................................
(PID.TID 0000.0001) //      0 ......................................................................................................................................
(PID.TID 0000.0001) //     -1 ......................................................................................................................................
(PID.TID 0000.0001) //     -2 ......................................................................................................................................
(PID.TID 0000.0001) // =======================================================
(PID.TID 0000.0001) // END OF FIELD                                          =
(PID.TID 0000.0001) // =======================================================
(PID.TID 0000.0001) 
(PID.TID 0000.0001) %MON fCori_max                    =   1.4540029928789E-04
(PID.TID 0000.0001) %MON fCori_min                    =  -1.4540029928789E-04
(PID.TID 0000.0001) %MON fCori_mean                   =  -2.2565487110447E-21
(PID.TID 0000.0001) %MON fCori_sd                     =   1.0284451245737E-04
(PID.TID 0000.0001) %MON fCoriG_max                   =   1.4526891053949E-04
(PID.TID 0000.0001) %MON fCoriG_min                   =  -1.4544410433286E-04
(PID.TID 0000.0001) %MON fCoriG_mean                  =  -2.3086365767121E-06
(PID.TID 0000.0001) %MON fCoriG_sd                    =   1.0363181330709E-04
(PID.TID 0000.0001)  PACKAGES_BOOT: opening data.pkg
(PID.TID 0000.0001)  OPEN_COPY_DATA_FILE: opening file data.pkg
(PID.TID 0000.0001) // =======================================================
(PID.TID 0000.0001) // Parameter file "data.pkg"
(PID.TID 0000.0001) // =======================================================
(PID.TID 0000.0001) ># Packages
(PID.TID 0000.0001) > &PACKAGES
(PID.TID 0000.0001) > useAIM=.TRUE.,
(PID.TID 0000.0001) > useSHAP_FILT=.TRUE.,
(PID.TID 0000.0001) > &
(PID.TID 0000.0001) 
(PID.TID 0000.0001)  PACKAGES_BOOT: finished reading data.pkg
(PID.TID 0000.0001)  SHAP_FILT_READPARMS: opening data.shap
(PID.TID 0000.0001)  OPEN_COPY_DATA_FILE: opening file data.shap
(PID.TID 0000.0001) // =======================================================
(PID.TID 0000.0001) // Parameter file "data.shap"
(PID.TID 0000.0001) // =======================================================
(PID.TID 0000.0001) ># Packages
(PID.TID 0000.0001) > &SHAP_PARM01
(PID.TID 0000.0001) > nShapT=4,
(PID.TID 0000.0001) > nShapUV=4,
(PID.TID 0000.0001) > Shap_funct=4,
(PID.TID 0000.0001) > &
(PID.TID 0000.0001) 
(PID.TID 0000.0001)  SHAP_FILT_READPARMS: finished reading data.shap
 Shap_funct, nShap_Tr,UV _Phys=           4           4           4           0
            0
 Shap_Trtau,Shap_uvtau=   450.0000000000000        450.0000000000000     
(PID.TID 0000.0001) // CG2D normalisation factor =          0.2454122852291226400000000E-06
(PID.TID 0000.0001) 
 ini_cg2d: sumArea,cg2dTolerance =  5.09904363781794E+14  2.78081767031093E-12
(PID.TID 0000.0001) // =======================================================
(PID.TID 0000.0001) // Model configuration
(PID.TID 0000.0001) // =======================================================
(PID.TID 0000.0001) //
(PID.TID 0000.0001) // "Physical" paramters ( PARM01 in namelist )
(PID.TID 0000.0001) //
(PID.TID 0000.0001) tRef =   /* Reference temperature profile ( oC or oK ) */
(PID.TID 0000.0001)                 2.810890000000000E+02,      /* K =  1 */
(PID.TID 0000.0001)                 2.893210000000000E+02,      /* K =  2 */
(PID.TID 0000.0001)                 3.071910000000000E+02,      /* K =  3 */
(PID.TID 0000.0001)                 3.313770000000000E+02,      /* K =  4 */
(PID.TID 0000.0001)                 4.324130000000000E+02       /* K =  5 */
(PID.TID 0000.0001)     ;
(PID.TID 0000.0001) sRef =   /* Reference salinity profile ( ppt ) */
(PID.TID 0000.0001)     5 @  0.000000000000000E+00              /* K =  1:  5 */
(PID.TID 0000.0001)     ;
(PID.TID 0000.0001) viscAh =   /* Lateral eddy viscosity ( m^2/s ) */
(PID.TID 0000.0001)                 0.000000000000000E+00
(PID.TID 0000.0001)     ;
(PID.TID 0000.0001) viscAh =   /* Lateral biharmonic viscosity ( m^4/s ) */
(PID.TID 0000.0001)                 0.000000000000000E+00
(PID.TID 0000.0001)     ;
(PID.TID 0000.0001) no_slip_sides =  /* Viscous BCs: No-slip sides */
(PID.TID 0000.0001)                   F
(PID.TID 0000.0001)     ;
(PID.TID 0000.0001) viscAr =   /* Vertical eddy viscosity ( units of r^2/s ) */
(PID.TID 0000.0001)                 0.000000000000000E+00
(PID.TID 0000.0001)     ;
(PID.TID 0000.0001) diffKhT =   /* Laplacian diffusion of heat laterally ( m^2/s ) */
(PID.TID 0000.0001)                 0.000000000000000E+00
(PID.TID 0000.0001)     ;
(PID.TID 0000.0001) diffK4T =   /* Bihaarmonic diffusion of heat laterally ( m^4/s ) */
(PID.TID 0000.0001)                 0.000000000000000E+00
(PID.TID 0000.0001)     ;
(PID.TID 0000.0001) diffKzT =   /* Laplacian diffusion of heat vertically ( m^2/s ) */
(PID.TID 0000.0001)                 1.234567000000000E+05
(PID.TID 0000.0001)     ;
(PID.TID 0000.0001) diffKrT =   /* Laplacian diffusion of heat vertically ( m^2/s ) */
(PID.TID 0000.0001)                 0.000000000000000E+00
(PID.TID 0000.0001)     ;
(PID.TID 0000.0001) diffKhS =   /* Laplacian diffusion of salt laterally ( m^2/s ) */
(PID.TID 0000.0001)                 0.000000000000000E+00
(PID.TID 0000.0001)     ;
(PID.TID 0000.0001) diffK4S =   /* Bihaarmonic diffusion of salt laterally ( m^4/s ) */
(PID.TID 0000.0001)                 0.000000000000000E+00
(PID.TID 0000.0001)     ;
(PID.TID 0000.0001) diffKzS =   /* Laplacian diffusion of salt vertically ( m^2/s ) */
(PID.TID 0000.0001)                 1.234567000000000E+05
(PID.TID 0000.0001)     ;
(PID.TID 0000.0001) diffKrS =   /* Laplacian diffusion of salt vertically ( m^2/s ) */
(PID.TID 0000.0001)                 0.000000000000000E+00
(PID.TID 0000.0001)     ;
(PID.TID 0000.0001) tAlpha =   /* Linear EOS thermal expansion coefficient ( 1/degree ) */
(PID.TID 0000.0001)                 2.000000000000000E-04
(PID.TID 0000.0001)     ;
(PID.TID 0000.0001) sBeta =   /* Linear EOS haline contraction coefficient ( 1/ppt ) */
(PID.TID 0000.0001)                 7.400000000000001E-04
(PID.TID 0000.0001)     ;
(PID.TID 0000.0001) rhonil =   /* Reference density ( kg/m^3 ) */
(PID.TID 0000.0001)                 1.000000000000000E+00
(PID.TID 0000.0001)     ;
(PID.TID 0000.0001) rhoConst =   /* Reference density ( kg/m^3 ) */
(PID.TID 0000.0001)                 1.000000000000000E+00
(PID.TID 0000.0001)     ;
(PID.TID 0000.0001) gravity =   /* Gravitational acceleration ( m/s^2 ) */
(PID.TID 0000.0001)                 9.810000000000001E+00
(PID.TID 0000.0001)     ;
(PID.TID 0000.0001) gBaro =   /* Barotropic gravity ( m/s^2 ) */
(PID.TID 0000.0001)                 9.810000000000001E+00
(PID.TID 0000.0001)     ;
(PID.TID 0000.0001) f0 =   /* Reference coriolis parameter ( 1/s ) */
(PID.TID 0000.0001)                 1.000000000000000E-04
(PID.TID 0000.0001)     ;
(PID.TID 0000.0001) beta =   /* Beta ( 1/(m.s) ) */
(PID.TID 0000.0001)                 9.999999999999998E-12
(PID.TID 0000.0001)     ;
(PID.TID 0000.0001) freeSurfFac =   /* Implicit free surface factor */
(PID.TID 0000.0001)                 1.000000000000000E+00
(PID.TID 0000.0001)     ;
(PID.TID 0000.0001) implicitFreeSurface =   /* Implicit free surface on/off flag */
(PID.TID 0000.0001)                   T
(PID.TID 0000.0001)     ;
(PID.TID 0000.0001) rigidLid =   /* Rigid lid on/off flag */
(PID.TID 0000.0001)                   F
(PID.TID 0000.0001)     ;
(PID.TID 0000.0001) implicSurfPress =   /* Surface Pressure implicit factor (0-1)*/
(PID.TID 0000.0001)                 1.000000000000000E+00
(PID.TID 0000.0001)     ;
(PID.TID 0000.0001) implicDiv2Dflow =   /* Barot. Flow Div. implicit factor (0-1)*/
(PID.TID 0000.0001)                 1.000000000000000E+00
(PID.TID 0000.0001)     ;
(PID.TID 0000.0001) staggerTimeStep =   /* Stagger time stepping on/off flag */
(PID.TID 0000.0001)                   T
(PID.TID 0000.0001)     ;
(PID.TID 0000.0001) momStepping =  /* Momentum equation on/off flag */
(PID.TID 0000.0001)                   T
(PID.TID 0000.0001)     ;
(PID.TID 0000.0001) momAdvection =  /* Momentum advection on/off flag */
(PID.TID 0000.0001)                   T
(PID.TID 0000.0001)     ;
(PID.TID 0000.0001) momViscosity =  /* Momentum viscosity on/off flag */
(PID.TID 0000.0001)                   T
(PID.TID 0000.0001)     ;
(PID.TID 0000.0001) useCoriolis =  /* Coriolis on/off flag */
(PID.TID 0000.0001)                   T
(PID.TID 0000.0001)     ;
(PID.TID 0000.0001) momForcing =  /* Momentum forcing on/off flag */
(PID.TID 0000.0001)                   T
(PID.TID 0000.0001)     ;
(PID.TID 0000.0001) momPressureForcing =  /* Momentum pressure term on/off flag */
(PID.TID 0000.0001)                   T
(PID.TID 0000.0001)     ;
(PID.TID 0000.0001) tempStepping =  /* Temperature equation on/off flag */
(PID.TID 0000.0001)                   T
(PID.TID 0000.0001)     ;
(PID.TID 0000.0001) nonHydrostatic =  /* Non-Hydrostatic on/off flag */
(PID.TID 0000.0001)                   F
(PID.TID 0000.0001)     ;
(PID.TID 0000.0001) //
(PID.TID 0000.0001) // Elliptic solver(s) paramters ( PARM02 in namelist )
(PID.TID 0000.0001) //
(PID.TID 0000.0001) cg2dMaxIters =   /* Upper limit on 2d con. grad iterations  */
(PID.TID 0000.0001)                     200
(PID.TID 0000.0001)     ;
(PID.TID 0000.0001) cg2dChkResFreq =   /* 2d con. grad convergence test frequency */
(PID.TID 0000.0001)                       1
(PID.TID 0000.0001)     ;
(PID.TID 0000.0001) cg2dTargetResidual =   /* 2d con. grad target residual  */
(PID.TID 0000.0001)                 1.000000000000000E-07
(PID.TID 0000.0001)     ;
(PID.TID 0000.0001) //
(PID.TID 0000.0001) // Time stepping paramters ( PARM03 in namelist )
(PID.TID 0000.0001) //
(PID.TID 0000.0001) nIter0 =   /* Base timestep number  */
(PID.TID 0000.0001)                   17280
(PID.TID 0000.0001)     ;
(PID.TID 0000.0001) nTimeSteps =   /* Number of timesteps */
(PID.TID 0000.0001)                      10
(PID.TID 0000.0001)     ;
(PID.TID 0000.0001) deltatTmom =   /* Momentum equation timestep ( s ) */
(PID.TID 0000.0001)                 4.500000000000000E+02
(PID.TID 0000.0001)     ;
(PID.TID 0000.0001) deltatTtracer =   /* Tracer equation timestep ( s ) */
(PID.TID 0000.0001)                 4.500000000000000E+02
(PID.TID 0000.0001)     ;
(PID.TID 0000.0001) deltatTClock  =   /* Model clock timestep ( s ) */
(PID.TID 0000.0001)                 4.500000000000000E+02
(PID.TID 0000.0001)     ;
(PID.TID 0000.0001) cAdjFreq =   /* Convective adjustment interval ( s ) */
(PID.TID 0000.0001)                 0.000000000000000E+00
(PID.TID 0000.0001)     ;
(PID.TID 0000.0001) abeps =   /* Adams-Bashforth stabilizing weight */
(PID.TID 0000.0001)                 1.000000000000000E-01
(PID.TID 0000.0001)     ;
(PID.TID 0000.0001) tauCD =   /* CD coupling time-scale ( s ) */
(PID.TID 0000.0001)                 4.500000000000000E+02
(PID.TID 0000.0001)     ;
(PID.TID 0000.0001) rCD =   /* Normalised CD coupling parameter */
(PID.TID 0000.0001)                 0.000000000000000E+00
(PID.TID 0000.0001)     ;
(PID.TID 0000.0001) startTime =   /* Run start time ( s ). */
(PID.TID 0000.0001)                 7.776000000000000E+06
(PID.TID 0000.0001)     ;
(PID.TID 0000.0001) endTime =   /* Integration ending time ( s ). */
(PID.TID 0000.0001)                 7.780500000000000E+06
(PID.TID 0000.0001)     ;
(PID.TID 0000.0001) pChkPtFreq =   /* Permanent restart/checkpoint file interval ( s ). */
(PID.TID 0000.0001)                 2.592000000000000E+06
(PID.TID 0000.0001)     ;
(PID.TID 0000.0001) chkPtFreq =   /* Rolling restart/checkpoint file interval ( s ). */
(PID.TID 0000.0001)                 0.000000000000000E+00
(PID.TID 0000.0001)     ;
(PID.TID 0000.0001) dumpFreq =   /* Model state write out interval ( s ). */
(PID.TID 0000.0001)                 2.592000000000000E+06
(PID.TID 0000.0001)     ;
(PID.TID 0000.0001) //
(PID.TID 0000.0001) // Gridding paramters ( PARM04 in namelist )
(PID.TID 0000.0001) //
(PID.TID 0000.0001) usingCartesianGrid =   /* Cartesian coordinates flag ( True / False ) */
(PID.TID 0000.0001)                   F
(PID.TID 0000.0001)     ;
(PID.TID 0000.0001) usingSphericalPolarGrid =   /* Spherical coordinates flag ( True / False ) */
(PID.TID 0000.0001)                   T
(PID.TID 0000.0001)     ;
(PID.TID 0000.0001) groundAtK1 =   /* Lower Boundary (ground) at the surface(k=1) ( T / F ) */
(PID.TID 0000.0001)                   T
(PID.TID 0000.0001)     ;
(PID.TID 0000.0001) Ro_SeaLevel =   /* r(1) ( units of r ) */
(PID.TID 0000.0001)                 1.000000000000000E+05
(PID.TID 0000.0001)     ;
(PID.TID 0000.0001) rkFac =   /* minus Vertical index orientation  */
(PID.TID 0000.0001)                 1.000000000000000E+00
(PID.TID 0000.0001)     ;
(PID.TID 0000.0001) horiVertRatio =   /* Ratio on units : Horiz - Vertical */
(PID.TID 0000.0001)                 9.810000000000001E+00
(PID.TID 0000.0001)     ;
(PID.TID 0000.0001) delZ =   /* W spacing ( m ) */
(PID.TID 0000.0001)     5 @  1.234567000000000E+05              /* K =  1:  5 */
(PID.TID 0000.0001)     ;
(PID.TID 0000.0001) delP =   /* W spacing ( Pa ) */
(PID.TID 0000.0001)     5 @  1.234567000000000E+05              /* K =  1:  5 */
(PID.TID 0000.0001)     ;
(PID.TID 0000.0001) delR =   /* W spacing ( units of r ) */
(PID.TID 0000.0001)                 1.000000000000000E+04,      /* K =  1 */
(PID.TID 0000.0001)                 2.500000000000000E+04,      /* K =  2 */
(PID.TID 0000.0001)                 3.000000000000000E+04,      /* K =  3 */
(PID.TID 0000.0001)                 2.000000000000000E+04,      /* K =  4 */
(PID.TID 0000.0001)                 1.500000000000000E+04       /* K =  5 */
(PID.TID 0000.0001)     ;
(PID.TID 0000.0001) delX =   /* U spacing ( m - cartesian, degrees - spherical ) */
(PID.TID 0000.0001)   128 @  2.812500000000000E+00              /* I =  1:128 */
(PID.TID 0000.0001)     ;
(PID.TID 0000.0001) delY =   /* V spacing ( m - cartesian, degrees - spherical ) */
(PID.TID 0000.0001)    64 @  2.812500000000000E+00              /* J =  1: 64 */
(PID.TID 0000.0001)     ;
(PID.TID 0000.0001) phiMin =    /* South edge (ignored - cartesian, degrees - spherical ) */
(PID.TID 0000.0001)                -9.000000000000000E+01
(PID.TID 0000.0001)     ;
(PID.TID 0000.0001) thetaMin =    /* West edge ( ignored - cartesian, degrees - spherical ) */
(PID.TID 0000.0001)                 0.000000000000000E+00
(PID.TID 0000.0001)     ;
(PID.TID 0000.0001) rSphere =    /* Radius ( ignored - cartesian, m - spherical ) */
(PID.TID 0000.0001)                 6.370000000000000E+06
(PID.TID 0000.0001)     ;
(PID.TID 0000.0001) xcoord =   /* P-point X coord ( m - cartesian, degrees - spherical ) */
(PID.TID 0000.0001)                 1.406250000000000E+00,      /* I =  1 */
(PID.TID 0000.0001)                 4.218750000000000E+00,      /* I =  2 */
(PID.TID 0000.0001)                 7.031250000000000E+00,      /* I =  3 */
(PID.TID 0000.0001)                 9.843750000000000E+00,      /* I =  4 */
(PID.TID 0000.0001)                 1.265625000000000E+01,      /* I =  5 */
(PID.TID 0000.0001)                 1.546875000000000E+01,      /* I =  6 */
(PID.TID 0000.0001)                 1.828125000000000E+01,      /* I =  7 */
(PID.TID 0000.0001)                 2.109375000000000E+01,      /* I =  8 */
(PID.TID 0000.0001)                 2.390625000000000E+01,      /* I =  9 */
(PID.TID 0000.0001)                 2.671875000000000E+01,      /* I = 10 */
(PID.TID 0000.0001)                 2.953125000000000E+01,      /* I = 11 */
(PID.TID 0000.0001)                 3.234375000000000E+01,      /* I = 12 */
(PID.TID 0000.0001)                 3.515625000000000E+01,      /* I = 13 */
(PID.TID 0000.0001)                 3.796875000000000E+01,      /* I = 14 */
(PID.TID 0000.0001)                 4.078125000000000E+01,      /* I = 15 */
(PID.TID 0000.0001)                 4.359375000000000E+01,      /* I = 16 */
(PID.TID 0000.0001)                 4.640625000000000E+01,      /* I = 17 */
(PID.TID 0000.0001)                 4.921875000000000E+01,      /* I = 18 */
(PID.TID 0000.0001)                 5.203125000000000E+01,      /* I = 19 */
(PID.TID 0000.0001)                 5.484375000000000E+01,      /* I = 20 */
(PID.TID 0000.0001)                 5.765625000000000E+01,      /* I = 21 */
(PID.TID 0000.0001)                 6.046875000000000E+01,      /* I = 22 */
(PID.TID 0000.0001)                 6.328125000000000E+01,      /* I = 23 */
(PID.TID 0000.0001)                 6.609375000000000E+01,      /* I = 24 */
(PID.TID 0000.0001)                 6.890625000000000E+01,      /* I = 25 */
(PID.TID 0000.0001)                 7.171875000000000E+01,      /* I = 26 */
(PID.TID 0000.0001)                 7.453125000000000E+01,      /* I = 27 */
(PID.TID 0000.0001)                 7.734375000000000E+01,      /* I = 28 */
(PID.TID 0000.0001)                 8.015625000000000E+01,      /* I = 29 */
(PID.TID 0000.0001)                 8.296875000000000E+01,      /* I = 30 */
(PID.TID 0000.0001)                 8.578125000000000E+01,      /* I = 31 */
(PID.TID 0000.0001)                 8.859375000000000E+01,      /* I = 32 */
(PID.TID 0000.0001)                 9.140625000000000E+01,      /* I = 33 */
(PID.TID 0000.0001)                 9.421875000000000E+01,      /* I = 34 */
(PID.TID 0000.0001)                 9.703125000000000E+01,      /* I = 35 */
(PID.TID 0000.0001)                 9.984375000000000E+01,      /* I = 36 */
(PID.TID 0000.0001)                 1.026562500000000E+02,      /* I = 37 */
(PID.TID 0000.0001)                 1.054687500000000E+02,      /* I = 38 */
(PID.TID 0000.0001)                 1.082812500000000E+02,      /* I = 39 */
(PID.TID 0000.0001)                 1.110937500000000E+02,      /* I = 40 */
(PID.TID 0000.0001)                 1.139062500000000E+02,      /* I = 41 */
(PID.TID 0000.0001)                 1.167187500000000E+02,      /* I = 42 */
(PID.TID 0000.0001)                 1.195312500000000E+02,      /* I = 43 */
(PID.TID 0000.0001)                 1.223437500000000E+02,      /* I = 44 */
(PID.TID 0000.0001)                 1.251562500000000E+02,      /* I = 45 */
(PID.TID 0000.0001)                 1.279687500000000E+02,      /* I = 46 */
(PID.TID 0000.0001)                 1.307812500000000E+02,      /* I = 47 */
(PID.TID 0000.0001)                 1.335937500000000E+02,      /* I = 48 */
(PID.TID 0000.0001)                 1.364062500000000E+02,      /* I = 49 */
(PID.TID 0000.0001)                 1.392187500000000E+02,      /* I = 50 */
(PID.TID 0000.0001)                 1.420312500000000E+02,      /* I = 51 */
(PID.TID 0000.0001)                 1.448437500000000E+02,      /* I = 52 */
(PID.TID 0000.0001)                 1.476562500000000E+02,      /* I = 53 */
(PID.TID 0000.0001)                 1.504687500000000E+02,      /* I = 54 */
(PID.TID 0000.0001)                 1.532812500000000E+02,      /* I = 55 */
(PID.TID 0000.0001)                 1.560937500000000E+02,      /* I = 56 */
(PID.TID 0000.0001)                 1.589062500000000E+02,      /* I = 57 */
(PID.TID 0000.0001)                 1.617187500000000E+02,      /* I = 58 */
(PID.TID 0000.0001)                 1.645312500000000E+02,      /* I = 59 */
(PID.TID 0000.0001)                 1.673437500000000E+02,      /* I = 60 */
(PID.TID 0000.0001)                 1.701562500000000E+02,      /* I = 61 */
(PID.TID 0000.0001)                 1.729687500000000E+02,      /* I = 62 */
(PID.TID 0000.0001)                 1.757812500000000E+02,      /* I = 63 */
(PID.TID 0000.0001)                 1.785937500000000E+02,      /* I = 64 */
(PID.TID 0000.0001)                 1.814062500000000E+02,      /* I = 65 */
(PID.TID 0000.0001)                 1.842187500000000E+02,      /* I = 66 */
(PID.TID 0000.0001)                 1.870312500000000E+02,      /* I = 67 */
(PID.TID 0000.0001)                 1.898437500000000E+02,      /* I = 68 */
(PID.TID 0000.0001)                 1.926562500000000E+02,      /* I = 69 */
(PID.TID 0000.0001)                 1.954687500000000E+02,      /* I = 70 */
(PID.TID 0000.0001)                 1.982812500000000E+02,      /* I = 71 */
(PID.TID 0000.0001)                 2.010937500000000E+02,      /* I = 72 */
(PID.TID 0000.0001)                 2.039062500000000E+02,      /* I = 73 */
(PID.TID 0000.0001)                 2.067187500000000E+02,      /* I = 74 */
(PID.TID 0000.0001)                 2.095312500000000E+02,      /* I = 75 */
(PID.TID 0000.0001)                 2.123437500000000E+02,      /* I = 76 */
(PID.TID 0000.0001)                 2.151562500000000E+02,      /* I = 77 */
(PID.TID 0000.0001)                 2.179687500000000E+02,      /* I = 78 */
(PID.TID 0000.0001)                 2.207812500000000E+02,      /* I = 79 */
(PID.TID 0000.0001)                 2.235937500000000E+02,      /* I = 80 */
(PID.TID 0000.0001)                 2.264062500000000E+02,      /* I = 81 */
(PID.TID 0000.0001)                 2.292187500000000E+02,      /* I = 82 */
(PID.TID 0000.0001)                 2.320312500000000E+02,      /* I = 83 */
(PID.TID 0000.0001)                 2.348437500000000E+02,      /* I = 84 */
(PID.TID 0000.0001)                 2.376562500000000E+02,      /* I = 85 */
(PID.TID 0000.0001)                 2.404687500000000E+02,      /* I = 86 */
(PID.TID 0000.0001)                 2.432812500000000E+02,      /* I = 87 */
(PID.TID 0000.0001)                 2.460937500000000E+02,      /* I = 88 */
(PID.TID 0000.0001)                 2.489062500000000E+02,      /* I = 89 */
(PID.TID 0000.0001)                 2.517187500000000E+02,      /* I = 90 */
(PID.TID 0000.0001)                 2.545312500000000E+02,      /* I = 91 */
(PID.TID 0000.0001)                 2.573437500000000E+02,      /* I = 92 */
(PID.TID 0000.0001)                 2.601562500000000E+02,      /* I = 93 */
(PID.TID 0000.0001)                 2.629687500000000E+02,      /* I = 94 */
(PID.TID 0000.0001)                 2.657812500000000E+02,      /* I = 95 */
(PID.TID 0000.0001)                 2.685937500000000E+02,      /* I = 96 */
(PID.TID 0000.0001)                 2.714062500000000E+02,      /* I = 97 */
(PID.TID 0000.0001)                 2.742187500000000E+02,      /* I = 98 */
(PID.TID 0000.0001)                 2.770312500000000E+02,      /* I = 99 */
(PID.TID 0000.0001)                 2.798437500000000E+02,      /* I =100 */
(PID.TID 0000.0001)                 2.826562500000000E+02,      /* I =101 */
(PID.TID 0000.0001)                 2.854687500000000E+02,      /* I =102 */
(PID.TID 0000.0001)                 2.882812500000000E+02,      /* I =103 */
(PID.TID 0000.0001)                 2.910937500000000E+02,      /* I =104 */
(PID.TID 0000.0001)                 2.939062500000000E+02,      /* I =105 */
(PID.TID 0000.0001)                 2.967187500000000E+02,      /* I =106 */
(PID.TID 0000.0001)                 2.995312500000000E+02,      /* I =107 */
(PID.TID 0000.0001)                 3.023437500000000E+02,      /* I =108 */
(PID.TID 0000.0001)                 3.051562500000000E+02,      /* I =109 */
(PID.TID 0000.0001)                 3.079687500000000E+02,      /* I =110 */
(PID.TID 0000.0001)                 3.107812500000000E+02,      /* I =111 */
(PID.TID 0000.0001)                 3.135937500000000E+02,      /* I =112 */
(PID.TID 0000.0001)                 3.164062500000000E+02,      /* I =113 */
(PID.TID 0000.0001)                 3.192187500000000E+02,      /* I =114 */
(PID.TID 0000.0001)                 3.220312500000000E+02,      /* I =115 */
(PID.TID 0000.0001)                 3.248437500000000E+02,      /* I =116 */
(PID.TID 0000.0001)                 3.276562500000000E+02,      /* I =117 */
(PID.TID 0000.0001)                 3.304687500000000E+02,      /* I =118 */
(PID.TID 0000.0001)                 3.332812500000000E+02,      /* I =119 */
(PID.TID 0000.0001)                 3.360937500000000E+02,      /* I =120 */
(PID.TID 0000.0001)                 3.389062500000000E+02,      /* I =121 */
(PID.TID 0000.0001)                 3.417187500000000E+02,      /* I =122 */
(PID.TID 0000.0001)                 3.445312500000000E+02,      /* I =123 */
(PID.TID 0000.0001)                 3.473437500000000E+02,      /* I =124 */
(PID.TID 0000.0001)                 3.501562500000000E+02,      /* I =125 */
(PID.TID 0000.0001)                 3.529687500000000E+02,      /* I =126 */
(PID.TID 0000.0001)                 3.557812500000000E+02,      /* I =127 */
(PID.TID 0000.0001)                 3.585937500000000E+02       /* I =128 */
(PID.TID 0000.0001)     ;
(PID.TID 0000.0001) ycoord =   /* P-point Y coord ( m - cartesian, degrees - spherical ) */
(PID.TID 0000.0001)                -8.859375000000000E+01,      /* J =  1 */
(PID.TID 0000.0001)                -8.578125000000000E+01,      /* J =  2 */
(PID.TID 0000.0001)                -8.296875000000000E+01,      /* J =  3 */
(PID.TID 0000.0001)                -8.015625000000000E+01,      /* J =  4 */
(PID.TID 0000.0001)                -7.734375000000000E+01,      /* J =  5 */
(PID.TID 0000.0001)                -7.453125000000000E+01,      /* J =  6 */
(PID.TID 0000.0001)                -7.171875000000000E+01,      /* J =  7 */
(PID.TID 0000.0001)                -6.890625000000000E+01,      /* J =  8 */
(PID.TID 0000.0001)                -6.609375000000000E+01,      /* J =  9 */
(PID.TID 0000.0001)                -6.328125000000000E+01,      /* J = 10 */
(PID.TID 0000.0001)                -6.046875000000000E+01,      /* J = 11 */
(PID.TID 0000.0001)                -5.765625000000000E+01,      /* J = 12 */
(PID.TID 0000.0001)                -5.484375000000000E+01,      /* J = 13 */
(PID.TID 0000.0001)                -5.203125000000000E+01,      /* J = 14 */
(PID.TID 0000.0001)                -4.921875000000000E+01,      /* J = 15 */
(PID.TID 0000.0001)                -4.640625000000000E+01,      /* J = 16 */
(PID.TID 0000.0001)                -4.359375000000000E+01,      /* J = 17 */
(PID.TID 0000.0001)                -4.078125000000000E+01,      /* J = 18 */
(PID.TID 0000.0001)                -3.796875000000000E+01,      /* J = 19 */
(PID.TID 0000.0001)                -3.515625000000000E+01,      /* J = 20 */
(PID.TID 0000.0001)                -3.234375000000000E+01,      /* J = 21 */
(PID.TID 0000.0001)                -2.953125000000000E+01,      /* J = 22 */
(PID.TID 0000.0001)                -2.671875000000000E+01,      /* J = 23 */
(PID.TID 0000.0001)                -2.390625000000000E+01,      /* J = 24 */
(PID.TID 0000.0001)                -2.109375000000000E+01,      /* J = 25 */
(PID.TID 0000.0001)                -1.828125000000000E+01,      /* J = 26 */
(PID.TID 0000.0001)                -1.546875000000000E+01,      /* J = 27 */
(PID.TID 0000.0001)                -1.265625000000000E+01,      /* J = 28 */
(PID.TID 0000.0001)                -9.843750000000000E+00,      /* J = 29 */
(PID.TID 0000.0001)                -7.031250000000000E+00,      /* J = 30 */
(PID.TID 0000.0001)                -4.218750000000000E+00,      /* J = 31 */
(PID.TID 0000.0001)                -1.406250000000000E+00,      /* J = 32 */
(PID.TID 0000.0001)                 1.406250000000000E+00,      /* J = 33 */
(PID.TID 0000.0001)                 4.218750000000000E+00,      /* J = 34 */
(PID.TID 0000.0001)                 7.031250000000000E+00,      /* J = 35 */
(PID.TID 0000.0001)                 9.843750000000000E+00,      /* J = 36 */
(PID.TID 0000.0001)                 1.265625000000000E+01,      /* J = 37 */
(PID.TID 0000.0001)                 1.546875000000000E+01,      /* J = 38 */
(PID.TID 0000.0001)                 1.828125000000000E+01,      /* J = 39 */
(PID.TID 0000.0001)                 2.109375000000000E+01,      /* J = 40 */
(PID.TID 0000.0001)                 2.390625000000000E+01,      /* J = 41 */
(PID.TID 0000.0001)                 2.671875000000000E+01,      /* J = 42 */
(PID.TID 0000.0001)                 2.953125000000000E+01,      /* J = 43 */
(PID.TID 0000.0001)                 3.234375000000000E+01,      /* J = 44 */
(PID.TID 0000.0001)                 3.515625000000000E+01,      /* J = 45 */
(PID.TID 0000.0001)                 3.796875000000000E+01,      /* J = 46 */
(PID.TID 0000.0001)                 4.078125000000000E+01,      /* J = 47 */
(PID.TID 0000.0001)                 4.359375000000000E+01,      /* J = 48 */
(PID.TID 0000.0001)                 4.640625000000000E+01,      /* J = 49 */
(PID.TID 0000.0001)                 4.921875000000000E+01,      /* J = 50 */
(PID.TID 0000.0001)                 5.203125000000000E+01,      /* J = 51 */
(PID.TID 0000.0001)                 5.484375000000000E+01,      /* J = 52 */
(PID.TID 0000.0001)                 5.765625000000000E+01,      /* J = 53 */
(PID.TID 0000.0001)                 6.046875000000000E+01,      /* J = 54 */
(PID.TID 0000.0001)                 6.328125000000000E+01,      /* J = 55 */
(PID.TID 0000.0001)                 6.609375000000000E+01,      /* J = 56 */
(PID.TID 0000.0001)                 6.890625000000000E+01,      /* J = 57 */
(PID.TID 0000.0001)                 7.171875000000000E+01,      /* J = 58 */
(PID.TID 0000.0001)                 7.453125000000000E+01,      /* J = 59 */
(PID.TID 0000.0001)                 7.734375000000000E+01,      /* J = 60 */
(PID.TID 0000.0001)                 8.015625000000000E+01,      /* J = 61 */
(PID.TID 0000.0001)                 8.296875000000000E+01,      /* J = 62 */
(PID.TID 0000.0001)                 8.578125000000000E+01,      /* J = 63 */
(PID.TID 0000.0001)                 8.859375000000000E+01       /* J = 64 */
(PID.TID 0000.0001)     ;
(PID.TID 0000.0001) rcoord =   /* P-point R coordinate (  units of r ) */
(PID.TID 0000.0001)                 9.500000000000000E+04,      /* K =  1 */
(PID.TID 0000.0001)                 7.750000000000000E+04,      /* K =  2 */
(PID.TID 0000.0001)                 5.000000000000000E+04,      /* K =  3 */
(PID.TID 0000.0001)                 2.500000000000000E+04,      /* K =  4 */
(PID.TID 0000.0001)                 7.500000000000000E+03       /* K =  5 */
(PID.TID 0000.0001)     ;
(PID.TID 0000.0001) dxF =  /* dxF(:,1,:,1) ( m - cartesian, degrees - spherical ) */
(PID.TID 0000.0001)   128 @  7.673714381622298E+03              /* I =  1:128 */
(PID.TID 0000.0001)     ;
(PID.TID 0000.0001) dxF =  /* dxF(1,:,1,:) ( m - cartesian, degrees - spherical ) */
(PID.TID 0000.0001)                 7.673714381622298E+03,      /* J =  1 */
(PID.TID 0000.0001)                 2.300265649478360E+04,      /* J =  2 */
(PID.TID 0000.0001)                 3.827618319365422E+04,      /* J =  3 */
(PID.TID 0000.0001)                 5.345749921461356E+04,      /* J =  4 */
(PID.TID 0000.0001)                 6.851003143764105E+04,      /* J =  5 */
(PID.TID 0000.0001)                 8.339751699416523E+04,      /* J =  6 */
(PID.TID 0000.0001)                 9.808409062749070E+04,      /* J =  7 */
(PID.TID 0000.0001)                 1.125343710953429E+05,      /* J =  8 */
(PID.TID 0000.0001)                 1.267135464063795E+05,      /* J =  9 */
(PID.TID 0000.0001)                 1.405874576853274E+05,      /* J = 10 */
(PID.TID 0000.0001)                 1.541226814647045E+05,      /* J = 11 */
(PID.TID 0000.0001)                 1.672866102048805E+05,      /* J = 12 */
(PID.TID 0000.0001)                 1.800475308484964E+05,      /* J = 13 */
(PID.TID 0000.0001)                 1.923747012199971E+05,      /* J = 14 */
(PID.TID 0000.0001)                 2.042384240862251E+05,      /* J = 15 */
(PID.TID 0000.0001)                 2.156101186996563E+05,      /* J = 16 */
(PID.TID 0000.0001)                 2.264623896519241E+05,      /* J = 17 */
(PID.TID 0000.0001)                 2.367690928717577E+05,      /* J = 18 */
(PID.TID 0000.0001)                 2.465053986083400E+05,      /* J = 19 */
(PID.TID 0000.0001)                 2.556478512483520E+05,      /* J = 20 */
(PID.TID 0000.0001)                 2.641744258225996E+05,      /* J = 21 */
(PID.TID 0000.0001)                 2.720645810660936E+05,      /* J = 22 */
(PID.TID 0000.0001)                 2.792993089037566E+05,      /* J = 23 */
(PID.TID 0000.0001)                 2.858611802425402E+05,      /* J = 24 */
(PID.TID 0000.0001)                 2.917343869596373E+05,      /* J = 25 */
(PID.TID 0000.0001)                 2.969047799856344E+05,      /* J = 26 */
(PID.TID 0000.0001)                 3.013599033908587E+05,      /* J = 27 */
(PID.TID 0000.0001)                 3.050890243928044E+05,      /* J = 28 */
(PID.TID 0000.0001)                 3.080831592123453E+05,      /* J = 29 */
(PID.TID 0000.0001)                 3.103350947164461E+05,      /* J = 30 */
(PID.TID 0000.0001)                 3.118394057952310E+05,      /* J = 31 */
(PID.TID 0000.0001)     2 @  3.125924684315491E+05,             /* J = 32: 33 */
(PID.TID 0000.0001)                 3.118394057952310E+05,      /* J = 34 */
(PID.TID 0000.0001)                 3.103350947164461E+05,      /* J = 35 */
(PID.TID 0000.0001)                 3.080831592123453E+05,      /* J = 36 */
(PID.TID 0000.0001)                 3.050890243928044E+05,      /* J = 37 */
(PID.TID 0000.0001)                 3.013599033908587E+05,      /* J = 38 */
(PID.TID 0000.0001)                 2.969047799856344E+05,      /* J = 39 */
(PID.TID 0000.0001)                 2.917343869596373E+05,      /* J = 40 */
(PID.TID 0000.0001)                 2.858611802425402E+05,      /* J = 41 */
(PID.TID 0000.0001)                 2.792993089037566E+05,      /* J = 42 */
(PID.TID 0000.0001)                 2.720645810660936E+05,      /* J = 43 */
(PID.TID 0000.0001)                 2.641744258225996E+05,      /* J = 44 */
(PID.TID 0000.0001)                 2.556478512483520E+05,      /* J = 45 */
(PID.TID 0000.0001)                 2.465053986083400E+05,      /* J = 46 */
(PID.TID 0000.0001)                 2.367690928717577E+05,      /* J = 47 */
(PID.TID 0000.0001)                 2.264623896519241E+05,      /* J = 48 */
(PID.TID 0000.0001)                 2.156101186996563E+05,      /* J = 49 */
(PID.TID 0000.0001)                 2.042384240862251E+05,      /* J = 50 */
(PID.TID 0000.0001)                 1.923747012199971E+05,      /* J = 51 */
(PID.TID 0000.0001)                 1.800475308484964E+05,      /* J = 52 */
(PID.TID 0000.0001)                 1.672866102048805E+05,      /* J = 53 */
(PID.TID 0000.0001)                 1.541226814647045E+05,      /* J = 54 */
(PID.TID 0000.0001)                 1.405874576853274E+05,      /* J = 55 */
(PID.TID 0000.0001)                 1.267135464063795E+05,      /* J = 56 */
(PID.TID 0000.0001)                 1.125343710953429E+05,      /* J = 57 */
(PID.TID 0000.0001)                 9.808409062749070E+04,      /* J = 58 */
(PID.TID 0000.0001)                 8.339751699416523E+04,      /* J = 59 */
(PID.TID 0000.0001)                 6.851003143764105E+04,      /* J = 60 */
(PID.TID 0000.0001)                 5.345749921461356E+04,      /* J = 61 */
(PID.TID 0000.0001)                 3.827618319365422E+04,      /* J = 62 */
(PID.TID 0000.0001)                 2.300265649478360E+04,      /* J = 63 */
(PID.TID 0000.0001)                 7.673714381622298E+03       /* J = 64 */
(PID.TID 0000.0001)     ;
(PID.TID 0000.0001) dyF =  /* dyF(:,1,:,1) ( m - cartesian, degrees - spherical ) */
(PID.TID 0000.0001)   128 @  3.126866438026091E+05              /* I =  1:128 */
(PID.TID 0000.0001)     ;
(PID.TID 0000.0001) dyF =  /* dyF(1,:,1,:) ( m - cartesian, degrees - spherical ) */
(PID.TID 0000.0001)    64 @  3.126866438026091E+05              /* J =  1: 64 */
(PID.TID 0000.0001)     ;
(PID.TID 0000.0001) dxG =  /* dxG(:,1,:,1) ( m - cartesian, degrees - spherical ) */
(PID.TID 0000.0001)   128 @  0.000000000000000E+00              /* I =  1:128 */
(PID.TID 0000.0001)     ;
(PID.TID 0000.0001) dxG =  /* dxG(1,:,1,:) ( m - cartesian, degrees - spherical ) */
(PID.TID 0000.0001)                 0.000000000000000E+00,      /* J =  1 */
(PID.TID 0000.0001)                 1.534280640463982E+04,      /* J =  2 */
(PID.TID 0000.0001)                 3.064865064477965E+04,      /* J =  3 */
(PID.TID 0000.0001)                 4.588065960101153E+04,      /* J =  4 */
(PID.TID 0000.0001)                 6.100213802959343E+04,      /* J =  5 */
(PID.TID 0000.0001)                 7.597665696450579E+04,      /* J =  6 */
(PID.TID 0000.0001)                 9.076814147802141E+04,      /* J =  7 */
(PID.TID 0000.0001)                 1.053409575883663E+05,      /* J =  8 */
(PID.TID 0000.0001)                 1.196599981051027E+05,      /* J =  9 */
(PID.TID 0000.0001)                 1.336907672054259E+05,      /* J = 10 */
(PID.TID 0000.0001)                 1.473994635376230E+05,      /* J = 11 */
(PID.TID 0000.0001)                 1.607530616514898E+05,      /* J = 12 */
(PID.TID 0000.0001)                 1.737193915595329E+05,      /* J = 13 */
(PID.TID 0000.0001)                 1.862672162372875E+05,      /* J = 14 */
(PID.TID 0000.0001)                 1.983663068760452E+05,      /* J = 15 */
(PID.TID 0000.0001)                 2.099875157067021E+05,      /* J = 16 */
(PID.TID 0000.0001)                 2.211028462192875E+05,      /* J = 17 */
(PID.TID 0000.0001)                 2.316855206090085E+05,      /* J = 18 */
(PID.TID 0000.0001)                 2.417100442863275E+05,      /* J = 19 */
(PID.TID 0000.0001)                 2.511522672956614E+05,      /* J = 20 */
(PID.TID 0000.0001)                 2.599894424947395E+05,      /* J = 21 */
(PID.TID 0000.0001)                 2.682002803544621E+05,      /* J = 22 */
(PID.TID 0000.0001)                 2.757650002472408E+05,      /* J = 23 */
(PID.TID 0000.0001)                 2.826653781002625E+05,      /* J = 24 */
(PID.TID 0000.0001)                 2.888847902988778E+05,      /* J = 25 */
(PID.TID 0000.0001)                 2.944082537343438E+05,      /* J = 26 */
(PID.TID 0000.0001)                 2.992224618994463E+05,      /* J = 27 */
(PID.TID 0000.0001)                 3.033158169450409E+05,      /* J = 28 */
(PID.TID 0000.0001)                 3.066784576202870E+05,      /* J = 29 */
(PID.TID 0000.0001)                 3.093022830292655E+05,      /* J = 30 */
(PID.TID 0000.0001)                 3.111809721467461E+05,      /* J = 31 */
(PID.TID 0000.0001)                 3.123099990460912E+05,      /* J = 32 */
(PID.TID 0000.0001)                 3.126866438026091E+05,      /* J = 33 */
(PID.TID 0000.0001)                 3.123099990460912E+05,      /* J = 34 */
(PID.TID 0000.0001)                 3.111809721467461E+05,      /* J = 35 */
(PID.TID 0000.0001)                 3.093022830292655E+05,      /* J = 36 */
(PID.TID 0000.0001)                 3.066784576202870E+05,      /* J = 37 */
(PID.TID 0000.0001)                 3.033158169450409E+05,      /* J = 38 */
(PID.TID 0000.0001)                 2.992224618994463E+05,      /* J = 39 */
(PID.TID 0000.0001)                 2.944082537343438E+05,      /* J = 40 */
(PID.TID 0000.0001)                 2.888847902988778E+05,      /* J = 41 */
(PID.TID 0000.0001)                 2.826653781002625E+05,      /* J = 42 */
(PID.TID 0000.0001)                 2.757650002472408E+05,      /* J = 43 */
(PID.TID 0000.0001)                 2.682002803544621E+05,      /* J = 44 */
(PID.TID 0000.0001)                 2.599894424947395E+05,      /* J = 45 */
(PID.TID 0000.0001)                 2.511522672956614E+05,      /* J = 46 */
(PID.TID 0000.0001)                 2.417100442863275E+05,      /* J = 47 */
(PID.TID 0000.0001)                 2.316855206090085E+05,      /* J = 48 */
(PID.TID 0000.0001)                 2.211028462192875E+05,      /* J = 49 */
(PID.TID 0000.0001)                 2.099875157067021E+05,      /* J = 50 */
(PID.TID 0000.0001)                 1.983663068760452E+05,      /* J = 51 */
(PID.TID 0000.0001)                 1.862672162372875E+05,      /* J = 52 */
(PID.TID 0000.0001)                 1.737193915595329E+05,      /* J = 53 */
(PID.TID 0000.0001)                 1.607530616514898E+05,      /* J = 54 */
(PID.TID 0000.0001)                 1.473994635376230E+05,      /* J = 55 */
(PID.TID 0000.0001)                 1.336907672054259E+05,      /* J = 56 */
(PID.TID 0000.0001)                 1.196599981051027E+05,      /* J = 57 */
(PID.TID 0000.0001)                 1.053409575883663E+05,      /* J = 58 */
(PID.TID 0000.0001)                 9.076814147802141E+04,      /* J = 59 */
(PID.TID 0000.0001)                 7.597665696450579E+04,      /* J = 60 */
(PID.TID 0000.0001)                 6.100213802959343E+04,      /* J = 61 */
(PID.TID 0000.0001)                 4.588065960101153E+04,      /* J = 62 */
(PID.TID 0000.0001)                 3.064865064477965E+04,      /* J = 63 */
(PID.TID 0000.0001)                 1.534280640463982E+04       /* J = 64 */
(PID.TID 0000.0001)     ;
(PID.TID 0000.0001) dyG =  /* dyG(:,1,:,1) ( m - cartesian, degrees - spherical ) */
(PID.TID 0000.0001)   128 @  3.126866438026091E+05              /* I =  1:128 */
(PID.TID 0000.0001)     ;
(PID.TID 0000.0001) dyG =  /* dyG(1,:,1,:) ( m - cartesian, degrees - spherical ) */
(PID.TID 0000.0001)    64 @  3.126866438026091E+05              /* J =  1: 64 */
(PID.TID 0000.0001)     ;
(PID.TID 0000.0001) dxC =  /* dxC(:,1,:,1) ( m - cartesian, degrees - spherical ) */
(PID.TID 0000.0001)   128 @  7.673714381622298E+03              /* I =  1:128 */
(PID.TID 0000.0001)     ;
(PID.TID 0000.0001) dxC =  /* dxC(1,:,1,:) ( m - cartesian, degrees - spherical ) */
(PID.TID 0000.0001)                 7.673714381622298E+03,      /* J =  1 */
(PID.TID 0000.0001)                 2.300265649478360E+04,      /* J =  2 */
(PID.TID 0000.0001)                 3.827618319365422E+04,      /* J =  3 */
(PID.TID 0000.0001)                 5.345749921461356E+04,      /* J =  4 */
(PID.TID 0000.0001)                 6.851003143764105E+04,      /* J =  5 */
(PID.TID 0000.0001)                 8.339751699416523E+04,      /* J =  6 */
(PID.TID 0000.0001)                 9.808409062749070E+04,      /* J =  7 */
(PID.TID 0000.0001)                 1.125343710953429E+05,      /* J =  8 */
(PID.TID 0000.0001)                 1.267135464063795E+05,      /* J =  9 */
(PID.TID 0000.0001)                 1.405874576853274E+05,      /* J = 10 */
(PID.TID 0000.0001)                 1.541226814647045E+05,      /* J = 11 */
(PID.TID 0000.0001)                 1.672866102048805E+05,      /* J = 12 */
(PID.TID 0000.0001)                 1.800475308484964E+05,      /* J = 13 */
(PID.TID 0000.0001)                 1.923747012199971E+05,      /* J = 14 */
(PID.TID 0000.0001)                 2.042384240862251E+05,      /* J = 15 */
(PID.TID 0000.0001)                 2.156101186996563E+05,      /* J = 16 */
(PID.TID 0000.0001)                 2.264623896519241E+05,      /* J = 17 */
(PID.TID 0000.0001)                 2.367690928717577E+05,      /* J = 18 */
(PID.TID 0000.0001)                 2.465053986083400E+05,      /* J = 19 */
(PID.TID 0000.0001)                 2.556478512483520E+05,      /* J = 20 */
(PID.TID 0000.0001)                 2.641744258225996E+05,      /* J = 21 */
(PID.TID 0000.0001)                 2.720645810660936E+05,      /* J = 22 */
(PID.TID 0000.0001)                 2.792993089037566E+05,      /* J = 23 */
(PID.TID 0000.0001)                 2.858611802425402E+05,      /* J = 24 */
(PID.TID 0000.0001)                 2.917343869596373E+05,      /* J = 25 */
(PID.TID 0000.0001)                 2.969047799856344E+05,      /* J = 26 */
(PID.TID 0000.0001)                 3.013599033908587E+05,      /* J = 27 */
(PID.TID 0000.0001)                 3.050890243928044E+05,      /* J = 28 */
(PID.TID 0000.0001)                 3.080831592123453E+05,      /* J = 29 */
(PID.TID 0000.0001)                 3.103350947164461E+05,      /* J = 30 */
(PID.TID 0000.0001)                 3.118394057952310E+05,      /* J = 31 */
(PID.TID 0000.0001)     2 @  3.125924684315491E+05,             /* J = 32: 33 */
(PID.TID 0000.0001)                 3.118394057952310E+05,      /* J = 34 */
(PID.TID 0000.0001)                 3.103350947164461E+05,      /* J = 35 */
(PID.TID 0000.0001)                 3.080831592123453E+05,      /* J = 36 */
(PID.TID 0000.0001)                 3.050890243928044E+05,      /* J = 37 */
(PID.TID 0000.0001)                 3.013599033908587E+05,      /* J = 38 */
(PID.TID 0000.0001)                 2.969047799856344E+05,      /* J = 39 */
(PID.TID 0000.0001)                 2.917343869596373E+05,      /* J = 40 */
(PID.TID 0000.0001)                 2.858611802425402E+05,      /* J = 41 */
(PID.TID 0000.0001)                 2.792993089037566E+05,      /* J = 42 */
(PID.TID 0000.0001)                 2.720645810660936E+05,      /* J = 43 */
(PID.TID 0000.0001)                 2.641744258225996E+05,      /* J = 44 */
(PID.TID 0000.0001)                 2.556478512483520E+05,      /* J = 45 */
(PID.TID 0000.0001)                 2.465053986083400E+05,      /* J = 46 */
(PID.TID 0000.0001)                 2.367690928717577E+05,      /* J = 47 */
(PID.TID 0000.0001)                 2.264623896519241E+05,      /* J = 48 */
(PID.TID 0000.0001)                 2.156101186996563E+05,      /* J = 49 */
(PID.TID 0000.0001)                 2.042384240862251E+05,      /* J = 50 */
(PID.TID 0000.0001)                 1.923747012199971E+05,      /* J = 51 */
(PID.TID 0000.0001)                 1.800475308484964E+05,      /* J = 52 */
(PID.TID 0000.0001)                 1.672866102048805E+05,      /* J = 53 */
(PID.TID 0000.0001)                 1.541226814647045E+05,      /* J = 54 */
(PID.TID 0000.0001)                 1.405874576853274E+05,      /* J = 55 */
(PID.TID 0000.0001)                 1.267135464063795E+05,      /* J = 56 */
(PID.TID 0000.0001)                 1.125343710953429E+05,      /* J = 57 */
(PID.TID 0000.0001)                 9.808409062749070E+04,      /* J = 58 */
(PID.TID 0000.0001)                 8.339751699416523E+04,      /* J = 59 */
(PID.TID 0000.0001)                 6.851003143764105E+04,      /* J = 60 */
(PID.TID 0000.0001)                 5.345749921461356E+04,      /* J = 61 */
(PID.TID 0000.0001)                 3.827618319365422E+04,      /* J = 62 */
(PID.TID 0000.0001)                 2.300265649478360E+04,      /* J = 63 */
(PID.TID 0000.0001)                 7.673714381622298E+03       /* J = 64 */
(PID.TID 0000.0001)     ;
(PID.TID 0000.0001) dyC =  /* dyC(:,1,:,1) ( m - cartesian, degrees - spherical ) */
(PID.TID 0000.0001)   128 @  3.126866438026091E+05              /* I =  1:128 */
(PID.TID 0000.0001)     ;
(PID.TID 0000.0001) dyC =  /* dyC(1,:,1,:) ( m - cartesian, degrees - spherical ) */
(PID.TID 0000.0001)    64 @  3.126866438026091E+05              /* J =  1: 64 */
(PID.TID 0000.0001)     ;
(PID.TID 0000.0001) dxV =  /* dxV(:,1,:,1) ( m - cartesian, degrees - spherical ) */
(PID.TID 0000.0001)   128 @  0.000000000000000E+00              /* I =  1:128 */
(PID.TID 0000.0001)     ;
(PID.TID 0000.0001) dxV =  /* dxV(1,:,1,:) ( m - cartesian, degrees - spherical ) */
(PID.TID 0000.0001)                 0.000000000000000E+00,      /* J =  1 */
(PID.TID 0000.0001)                 1.534280640463982E+04,      /* J =  2 */
(PID.TID 0000.0001)                 3.064865064477965E+04,      /* J =  3 */
(PID.TID 0000.0001)                 4.588065960101153E+04,      /* J =  4 */
(PID.TID 0000.0001)                 6.100213802959343E+04,      /* J =  5 */
(PID.TID 0000.0001)                 7.597665696450579E+04,      /* J =  6 */
(PID.TID 0000.0001)                 9.076814147802141E+04,      /* J =  7 */
(PID.TID 0000.0001)                 1.053409575883663E+05,      /* J =  8 */
(PID.TID 0000.0001)                 1.196599981051027E+05,      /* J =  9 */
(PID.TID 0000.0001)                 1.336907672054259E+05,      /* J = 10 */
(PID.TID 0000.0001)                 1.473994635376230E+05,      /* J = 11 */
(PID.TID 0000.0001)                 1.607530616514898E+05,      /* J = 12 */
(PID.TID 0000.0001)                 1.737193915595329E+05,      /* J = 13 */
(PID.TID 0000.0001)                 1.862672162372875E+05,      /* J = 14 */
(PID.TID 0000.0001)                 1.983663068760452E+05,      /* J = 15 */
(PID.TID 0000.0001)                 2.099875157067021E+05,      /* J = 16 */
(PID.TID 0000.0001)                 2.211028462192875E+05,      /* J = 17 */
(PID.TID 0000.0001)                 2.316855206090085E+05,      /* J = 18 */
(PID.TID 0000.0001)                 2.417100442863275E+05,      /* J = 19 */
(PID.TID 0000.0001)                 2.511522672956614E+05,      /* J = 20 */
(PID.TID 0000.0001)                 2.599894424947395E+05,      /* J = 21 */
(PID.TID 0000.0001)                 2.682002803544621E+05,      /* J = 22 */
(PID.TID 0000.0001)                 2.757650002472408E+05,      /* J = 23 */
(PID.TID 0000.0001)                 2.826653781002625E+05,      /* J = 24 */
(PID.TID 0000.0001)                 2.888847902988778E+05,      /* J = 25 */
(PID.TID 0000.0001)                 2.944082537343438E+05,      /* J = 26 */
(PID.TID 0000.0001)                 2.992224618994463E+05,      /* J = 27 */
(PID.TID 0000.0001)                 3.033158169450409E+05,      /* J = 28 */
(PID.TID 0000.0001)                 3.066784576202870E+05,      /* J = 29 */
(PID.TID 0000.0001)                 3.093022830292655E+05,      /* J = 30 */
(PID.TID 0000.0001)                 3.111809721467461E+05,      /* J = 31 */
(PID.TID 0000.0001)                 3.123099990460912E+05,      /* J = 32 */
(PID.TID 0000.0001)                 3.126866438026091E+05,      /* J = 33 */
(PID.TID 0000.0001)                 3.123099990460912E+05,      /* J = 34 */
(PID.TID 0000.0001)                 3.111809721467461E+05,      /* J = 35 */
(PID.TID 0000.0001)                 3.093022830292655E+05,      /* J = 36 */
(PID.TID 0000.0001)                 3.066784576202870E+05,      /* J = 37 */
(PID.TID 0000.0001)                 3.033158169450409E+05,      /* J = 38 */
(PID.TID 0000.0001)                 2.992224618994463E+05,      /* J = 39 */
(PID.TID 0000.0001)                 2.944082537343438E+05,      /* J = 40 */
(PID.TID 0000.0001)                 2.888847902988778E+05,      /* J = 41 */
(PID.TID 0000.0001)                 2.826653781002625E+05,      /* J = 42 */
(PID.TID 0000.0001)                 2.757650002472408E+05,      /* J = 43 */
(PID.TID 0000.0001)                 2.682002803544621E+05,      /* J = 44 */
(PID.TID 0000.0001)                 2.599894424947395E+05,      /* J = 45 */
(PID.TID 0000.0001)                 2.511522672956614E+05,      /* J = 46 */
(PID.TID 0000.0001)                 2.417100442863275E+05,      /* J = 47 */
(PID.TID 0000.0001)                 2.316855206090085E+05,      /* J = 48 */
(PID.TID 0000.0001)                 2.211028462192875E+05,      /* J = 49 */
(PID.TID 0000.0001)                 2.099875157067021E+05,      /* J = 50 */
(PID.TID 0000.0001)                 1.983663068760452E+05,      /* J = 51 */
(PID.TID 0000.0001)                 1.862672162372875E+05,      /* J = 52 */
(PID.TID 0000.0001)                 1.737193915595329E+05,      /* J = 53 */
(PID.TID 0000.0001)                 1.607530616514898E+05,      /* J = 54 */
(PID.TID 0000.0001)                 1.473994635376230E+05,      /* J = 55 */
(PID.TID 0000.0001)                 1.336907672054259E+05,      /* J = 56 */
(PID.TID 0000.0001)                 1.196599981051027E+05,      /* J = 57 */
(PID.TID 0000.0001)                 1.053409575883663E+05,      /* J = 58 */
(PID.TID 0000.0001)                 9.076814147802141E+04,      /* J = 59 */
(PID.TID 0000.0001)                 7.597665696450579E+04,      /* J = 60 */
(PID.TID 0000.0001)                 6.100213802959343E+04,      /* J = 61 */
(PID.TID 0000.0001)                 4.588065960101153E+04,      /* J = 62 */
(PID.TID 0000.0001)                 3.064865064477965E+04,      /* J = 63 */
(PID.TID 0000.0001)                 1.534280640463982E+04       /* J = 64 */
(PID.TID 0000.0001)     ;
(PID.TID 0000.0001) dyU =  /* dyU(:,1,:,1) ( m - cartesian, degrees - spherical ) */
(PID.TID 0000.0001)   128 @  3.126866438026091E+05              /* I =  1:128 */
(PID.TID 0000.0001)     ;
(PID.TID 0000.0001) dyU =  /* dyU(1,:,1,:) ( m - cartesian, degrees - spherical ) */
(PID.TID 0000.0001)    64 @  3.126866438026091E+05              /* J =  1: 64 */
(PID.TID 0000.0001)     ;
(PID.TID 0000.0001) rA =  /* rA(:,1,:,1) ( m - cartesian, degrees - spherical ) */
(PID.TID 0000.0001)   128 @  2.399227099019018E+09              /* I =  1:128 */
(PID.TID 0000.0001)     ;
(PID.TID 0000.0001) rA =  /* rA(1,:,1,:) ( m - cartesian, degrees - spherical ) */
(PID.TID 0000.0001)                 2.399227099019018E+09,      /* J =  1 */
(PID.TID 0000.0001)                 7.191901348828057E+09,      /* J =  2 */
(PID.TID 0000.0001)                 1.196724967835171E+10,      /* J =  3 */
(PID.TID 0000.0001)                 1.671376785519299E+10,      /* J =  4 */
(PID.TID 0000.0001)                 2.142002110131771E+10,      /* J =  5 */
(PID.TID 0000.0001)                 2.607467164043704E+10,      /* J =  6 */
(PID.TID 0000.0001)                 3.066650601170350E+10,      /* J =  7 */
(PID.TID 0000.0001)                 3.518446208391881E+10,      /* J =  8 */
(PID.TID 0000.0001)                 3.961765570517892E+10,      /* J =  9 */
(PID.TID 0000.0001)                 4.395540692374861E+10,      /* J = 10 */
(PID.TID 0000.0001)                 4.818726571700000E+10,      /* J = 11 */
(PID.TID 0000.0001)                 5.230303716643333E+10,      /* J = 12 */
(PID.TID 0000.0001)                 5.629280601812741E+10,      /* J = 13 */
(PID.TID 0000.0001)                 6.014696056945659E+10,      /* J = 14 */
(PID.TID 0000.0001)                 6.385621582452238E+10,      /* J = 15 */
(PID.TID 0000.0001)                 6.741163586252304E+10,      /* J = 16 */
(PID.TID 0000.0001)                 7.080465536516847E+10,      /* J = 17 */
(PID.TID 0000.0001)                 7.402710025128452E+10,      /* J = 18 */
(PID.TID 0000.0001)                 7.707120736888658E+10,      /* J = 19 */
(PID.TID 0000.0001)                 7.992964319729683E+10,      /* J = 20 */
(PID.TID 0000.0001)                 8.259552151423444E+10,      /* J = 21 */
(PID.TID 0000.0001)                 8.506241998533159E+10,      /* J = 22 */
(PID.TID 0000.0001)                 8.732439563609566E+10,      /* J = 23 */
(PID.TID 0000.0001)                 8.937599916905872E+10,      /* J = 24 */
(PID.TID 0000.0001)                 9.121228809161066E+10,      /* J = 25 */
(PID.TID 0000.0001)                 9.282883862289705E+10,      /* J = 26 */
(PID.TID 0000.0001)                 9.422175635109474E+10,      /* J = 27 */
(PID.TID 0000.0001)                 9.538768561539165E+10,      /* J = 28 */
(PID.TID 0000.0001)                 9.632381759006651E+10,      /* J = 29 */
(PID.TID 0000.0001)                 9.702789705119698E+10,      /* J = 30 */
(PID.TID 0000.0001)                 9.749822780969106E+10,      /* J = 31 */
(PID.TID 0000.0001)     2 @  9.773367679755542E+10,             /* J = 32: 33 */
(PID.TID 0000.0001)                 9.749822780969106E+10,      /* J = 34 */
(PID.TID 0000.0001)                 9.702789705119698E+10,      /* J = 35 */
(PID.TID 0000.0001)                 9.632381759006651E+10,      /* J = 36 */
(PID.TID 0000.0001)                 9.538768561539165E+10,      /* J = 37 */
(PID.TID 0000.0001)                 9.422175635109474E+10,      /* J = 38 */
(PID.TID 0000.0001)                 9.282883862289705E+10,      /* J = 39 */
(PID.TID 0000.0001)                 9.121228809161066E+10,      /* J = 40 */
(PID.TID 0000.0001)                 8.937599916905872E+10,      /* J = 41 */
(PID.TID 0000.0001)                 8.732439563609566E+10,      /* J = 42 */
(PID.TID 0000.0001)                 8.506241998533159E+10,      /* J = 43 */
(PID.TID 0000.0001)                 8.259552151423444E+10,      /* J = 44 */
(PID.TID 0000.0001)                 7.992964319729683E+10,      /* J = 45 */
(PID.TID 0000.0001)                 7.707120736888658E+10,      /* J = 46 */
(PID.TID 0000.0001)                 7.402710025128452E+10,      /* J = 47 */
(PID.TID 0000.0001)                 7.080465536516847E+10,      /* J = 48 */
(PID.TID 0000.0001)                 6.741163586252304E+10,      /* J = 49 */
(PID.TID 0000.0001)                 6.385621582452238E+10,      /* J = 50 */
(PID.TID 0000.0001)                 6.014696056945659E+10,      /* J = 51 */
(PID.TID 0000.0001)                 5.629280601812741E+10,      /* J = 52 */
(PID.TID 0000.0001)                 5.230303716643333E+10,      /* J = 53 */
(PID.TID 0000.0001)                 4.818726571700000E+10,      /* J = 54 */
(PID.TID 0000.0001)                 4.395540692374861E+10,      /* J = 55 */
(PID.TID 0000.0001)                 3.961765570517892E+10,      /* J = 56 */
(PID.TID 0000.0001)                 3.518446208391881E+10,      /* J = 57 */
(PID.TID 0000.0001)                 3.066650601170350E+10,      /* J = 58 */
(PID.TID 0000.0001)                 2.607467164043704E+10,      /* J = 59 */
(PID.TID 0000.0001)                 2.142002110131771E+10,      /* J = 60 */
(PID.TID 0000.0001)                 1.671376785519299E+10,      /* J = 61 */
(PID.TID 0000.0001)                 1.196724967835171E+10,      /* J = 62 */
(PID.TID 0000.0001)                 7.191901348828057E+09,      /* J = 63 */
(PID.TID 0000.0001)                 2.399227099019018E+09       /* J = 64 */
(PID.TID 0000.0001)     ;
(PID.TID 0000.0001) rAw =  /* rAw(:,1,:,1) ( m - cartesian, degrees - spherical ) */
(PID.TID 0000.0001)   128 @  2.399227099019018E+09              /* I =  1:128 */
(PID.TID 0000.0001)     ;
(PID.TID 0000.0001) rAw =  /* rAw(1,:,1,:) ( m - cartesian, degrees - spherical ) */
(PID.TID 0000.0001)                 2.399227099019018E+09,      /* J =  1 */
(PID.TID 0000.0001)                 7.191901348828057E+09,      /* J =  2 */
(PID.TID 0000.0001)                 1.196724967835171E+10,      /* J =  3 */
(PID.TID 0000.0001)                 1.671376785519299E+10,      /* J =  4 */
(PID.TID 0000.0001)                 2.142002110131771E+10,      /* J =  5 */
(PID.TID 0000.0001)                 2.607467164043704E+10,      /* J =  6 */
(PID.TID 0000.0001)                 3.066650601170350E+10,      /* J =  7 */
(PID.TID 0000.0001)                 3.518446208391881E+10,      /* J =  8 */
(PID.TID 0000.0001)                 3.961765570517892E+10,      /* J =  9 */
(PID.TID 0000.0001)                 4.395540692374861E+10,      /* J = 10 */
(PID.TID 0000.0001)                 4.818726571700000E+10,      /* J = 11 */
(PID.TID 0000.0001)                 5.230303716643333E+10,      /* J = 12 */
(PID.TID 0000.0001)                 5.629280601812741E+10,      /* J = 13 */
(PID.TID 0000.0001)                 6.014696056945659E+10,      /* J = 14 */
(PID.TID 0000.0001)                 6.385621582452238E+10,      /* J = 15 */
(PID.TID 0000.0001)                 6.741163586252304E+10,      /* J = 16 */
(PID.TID 0000.0001)                 7.080465536516847E+10,      /* J = 17 */
(PID.TID 0000.0001)                 7.402710025128452E+10,      /* J = 18 */
(PID.TID 0000.0001)                 7.707120736888658E+10,      /* J = 19 */
(PID.TID 0000.0001)                 7.992964319729683E+10,      /* J = 20 */
(PID.TID 0000.0001)                 8.259552151423444E+10,      /* J = 21 */
(PID.TID 0000.0001)                 8.506241998533159E+10,      /* J = 22 */
(PID.TID 0000.0001)                 8.732439563609566E+10,      /* J = 23 */
(PID.TID 0000.0001)                 8.937599916905872E+10,      /* J = 24 */
(PID.TID 0000.0001)                 9.121228809161066E+10,      /* J = 25 */
(PID.TID 0000.0001)                 9.282883862289705E+10,      /* J = 26 */
(PID.TID 0000.0001)                 9.422175635109474E+10,      /* J = 27 */
(PID.TID 0000.0001)                 9.538768561539165E+10,      /* J = 28 */
(PID.TID 0000.0001)                 9.632381759006651E+10,      /* J = 29 */
(PID.TID 0000.0001)                 9.702789705119698E+10,      /* J = 30 */
(PID.TID 0000.0001)                 9.749822780969106E+10,      /* J = 31 */
(PID.TID 0000.0001)     2 @  9.773367679755542E+10,             /* J = 32: 33 */
(PID.TID 0000.0001)                 9.749822780969106E+10,      /* J = 34 */
(PID.TID 0000.0001)                 9.702789705119698E+10,      /* J = 35 */
(PID.TID 0000.0001)                 9.632381759006651E+10,      /* J = 36 */
(PID.TID 0000.0001)                 9.538768561539165E+10,      /* J = 37 */
(PID.TID 0000.0001)                 9.422175635109474E+10,      /* J = 38 */
(PID.TID 0000.0001)                 9.282883862289705E+10,      /* J = 39 */
(PID.TID 0000.0001)                 9.121228809161066E+10,      /* J = 40 */
(PID.TID 0000.0001)                 8.937599916905872E+10,      /* J = 41 */
(PID.TID 0000.0001)                 8.732439563609566E+10,      /* J = 42 */
(PID.TID 0000.0001)                 8.506241998533159E+10,      /* J = 43 */
(PID.TID 0000.0001)                 8.259552151423444E+10,      /* J = 44 */
(PID.TID 0000.0001)                 7.992964319729683E+10,      /* J = 45 */
(PID.TID 0000.0001)                 7.707120736888658E+10,      /* J = 46 */
(PID.TID 0000.0001)                 7.402710025128452E+10,      /* J = 47 */
(PID.TID 0000.0001)                 7.080465536516847E+10,      /* J = 48 */
(PID.TID 0000.0001)                 6.741163586252304E+10,      /* J = 49 */
(PID.TID 0000.0001)                 6.385621582452238E+10,      /* J = 50 */
(PID.TID 0000.0001)                 6.014696056945659E+10,      /* J = 51 */
(PID.TID 0000.0001)                 5.629280601812741E+10,      /* J = 52 */
(PID.TID 0000.0001)                 5.230303716643333E+10,      /* J = 53 */
(PID.TID 0000.0001)                 4.818726571700000E+10,      /* J = 54 */
(PID.TID 0000.0001)                 4.395540692374861E+10,      /* J = 55 */
(PID.TID 0000.0001)                 3.961765570517892E+10,      /* J = 56 */
(PID.TID 0000.0001)                 3.518446208391881E+10,      /* J = 57 */
(PID.TID 0000.0001)                 3.066650601170350E+10,      /* J = 58 */
(PID.TID 0000.0001)                 2.607467164043704E+10,      /* J = 59 */
(PID.TID 0000.0001)                 2.142002110131771E+10,      /* J = 60 */
(PID.TID 0000.0001)                 1.671376785519299E+10,      /* J = 61 */
(PID.TID 0000.0001)                 1.196724967835171E+10,      /* J = 62 */
(PID.TID 0000.0001)                 7.191901348828057E+09,      /* J = 63 */
(PID.TID 0000.0001)                 2.399227099019018E+09       /* J = 64 */
(PID.TID 0000.0001)     ;
(PID.TID 0000.0001) rAs =  /* rAs(:,1,:,1) ( m - cartesian, degrees - spherical ) */
(PID.TID 0000.0001)   128 @  0.000000000000000E+00              /* I =  1:128 */
(PID.TID 0000.0001)     ;
(PID.TID 0000.0001) rAs =  /* rAs(1,:,1,:) ( m - cartesian, degrees - spherical ) */
(PID.TID 0000.0001)                 0.000000000000000E+00,      /* J =  1 */
(PID.TID 0000.0001)                 4.797008993346594E+09,      /* J =  2 */
(PID.TID 0000.0001)                 9.582461571859739E+09,      /* J =  3 */
(PID.TID 0000.0001)                 1.434482916112175E+10,      /* J =  4 */
(PID.TID 0000.0001)                 1.907263880047595E+10,      /* J =  5 */
(PID.TID 0000.0001)                 2.375450078239423E+10,      /* J =  6 */
(PID.TID 0000.0001)                 2.837913609127882E+10,      /* J =  7 */
(PID.TID 0000.0001)                 3.293540357560111E+10,      /* J =  8 */
(PID.TID 0000.0001)                 3.741232678790871E+10,      /* J =  9 */
(PID.TID 0000.0001)                 4.179912042805190E+10,      /* J = 10 */
(PID.TID 0000.0001)                 4.608521632591324E+10,      /* J = 11 */
(PID.TID 0000.0001)                 5.026028890105701E+10,      /* J = 12 */
(PID.TID 0000.0001)                 5.431428003795676E+10,      /* J = 13 */
(PID.TID 0000.0001)                 5.823742331687642E+10,      /* J = 14 */
(PID.TID 0000.0001)                 6.202026754202965E+10,      /* J = 15 */
(PID.TID 0000.0001)                 6.565369951034003E+10,      /* J = 16 */
(PID.TID 0000.0001)                 6.912896596594559E+10,      /* J = 17 */
(PID.TID 0000.0001)                 7.243769468755634E+10,      /* J = 18 */
(PID.TID 0000.0001)                 7.557191465787256E+10,      /* J = 19 */
(PID.TID 0000.0001)                 7.852407526645966E+10,      /* J = 20 */
(PID.TID 0000.0001)                 8.128706449983365E+10,      /* J = 21 */
(PID.TID 0000.0001)                 8.385422607492098E+10,      /* J = 22 */
(PID.TID 0000.0001)                 8.621937547463149E+10,      /* J = 23 */
(PID.TID 0000.0001)                 8.837681484689812E+10,      /* J = 24 */
(PID.TID 0000.0001)                 9.032134673130377E+10,      /* J = 25 */
(PID.TID 0000.0001)                 9.204828658021816E+10,      /* J = 26 */
(PID.TID 0000.0001)                 9.355347404428317E+10,      /* J = 27 */
(PID.TID 0000.0001)                 9.483328299505898E+10,      /* J = 28 */
(PID.TID 0000.0001)                 9.588463026068500E+10,      /* J = 29 */
(PID.TID 0000.0001)                 9.670498305351135E+10,      /* J = 30 */
(PID.TID 0000.0001)                 9.729236507180571E+10,      /* J = 31 */
(PID.TID 0000.0001)                 9.764536126083740E+10,      /* J = 32 */
(PID.TID 0000.0001)                 9.776312122186816E+10,      /* J = 33 */
(PID.TID 0000.0001)                 9.764536126083740E+10,      /* J = 34 */
(PID.TID 0000.0001)                 9.729236507180571E+10,      /* J = 35 */
(PID.TID 0000.0001)                 9.670498305351135E+10,      /* J = 36 */
(PID.TID 0000.0001)                 9.588463026068500E+10,      /* J = 37 */
(PID.TID 0000.0001)                 9.483328299505898E+10,      /* J = 38 */
(PID.TID 0000.0001)                 9.355347404428317E+10,      /* J = 39 */
(PID.TID 0000.0001)                 9.204828658021816E+10,      /* J = 40 */
(PID.TID 0000.0001)                 9.032134673130377E+10,      /* J = 41 */
(PID.TID 0000.0001)                 8.837681484689812E+10,      /* J = 42 */
(PID.TID 0000.0001)                 8.621937547463149E+10,      /* J = 43 */
(PID.TID 0000.0001)                 8.385422607492098E+10,      /* J = 44 */
(PID.TID 0000.0001)                 8.128706449983365E+10,      /* J = 45 */
(PID.TID 0000.0001)                 7.852407526645966E+10,      /* J = 46 */
(PID.TID 0000.0001)                 7.557191465787256E+10,      /* J = 47 */
(PID.TID 0000.0001)                 7.243769468755634E+10,      /* J = 48 */
(PID.TID 0000.0001)                 6.912896596594559E+10,      /* J = 49 */
(PID.TID 0000.0001)                 6.565369951034003E+10,      /* J = 50 */
(PID.TID 0000.0001)                 6.202026754202965E+10,      /* J = 51 */
(PID.TID 0000.0001)                 5.823742331687642E+10,      /* J = 52 */
(PID.TID 0000.0001)                 5.431428003795676E+10,      /* J = 53 */
(PID.TID 0000.0001)                 5.026028890105701E+10,      /* J = 54 */
(PID.TID 0000.0001)                 4.608521632591324E+10,      /* J = 55 */
(PID.TID 0000.0001)                 4.179912042805190E+10,      /* J = 56 */
(PID.TID 0000.0001)                 3.741232678790871E+10,      /* J = 57 */
(PID.TID 0000.0001)                 3.293540357560111E+10,      /* J = 58 */
(PID.TID 0000.0001)                 2.837913609127882E+10,      /* J = 59 */
(PID.TID 0000.0001)                 2.375450078239423E+10,      /* J = 60 */
(PID.TID 0000.0001)                 1.907263880047595E+10,      /* J = 61 */
(PID.TID 0000.0001)                 1.434482916112175E+10,      /* J = 62 */
(PID.TID 0000.0001)                 9.582461571859739E+09,      /* J = 63 */
(PID.TID 0000.0001)                 4.797008993346594E+09       /* J = 64 */
(PID.TID 0000.0001)     ;
(PID.TID 0000.0001) 
(PID.TID 0000.0001)  MDSREADFIELD: opening global file: pickup.0000017280
(PID.TID 0000.0001)  MDSREADFIELD: opening global file: pickup.0000017280
(PID.TID 0000.0001)  MDSREADFIELD: opening global file: pickup.0000017280
(PID.TID 0000.0001)  MDSREADFIELD: opening global file: pickup.0000017280
(PID.TID 0000.0001)  MDSREADFIELD: opening global file: pickup.0000017280
(PID.TID 0000.0001)  MDSREADFIELD: opening global file: pickup.0000017280
(PID.TID 0000.0001)  MDSREADFIELD: opening global file: pickup.0000017280
(PID.TID 0000.0001)  MDSREADFIELD: opening global file: pickup.0000017280
(PID.TID 0000.0001)  MDSREADFIELD: opening global file: pickup.0000017280
(PID.TID 0000.0001)  MDSREADFIELD: opening global file: pickup.0000017280
(PID.TID 0000.0001)  MDSREADFIELD: opening global file: pickup.0000017280
(PID.TID 0000.0001)  MDSREADFIELD: opening global file: pickup.0000017280
(PID.TID 0000.0001)  MDSREADFIELD: opening global file: pickup.0000017280
(PID.TID 0000.0001) // =======================================================
(PID.TID 0000.0001) // Model current state
(PID.TID 0000.0001) // =======================================================
(PID.TID 0000.0001) 
(PID.TID 0000.0001) // =======================================================
(PID.TID 0000.0001) // Begin MONITOR dynamic field statistics
(PID.TID 0000.0001) // =======================================================
(PID.TID 0000.0001) %MON time_tsnumber                =                 17280
(PID.TID 0000.0001) %MON time_secondsf                =   7.7760000000000E+06
(PID.TID 0000.0001) %MON time_secondsi                =               7776000
(PID.TID 0000.0001) %MON dynstat_eta_max              =   2.4175477217906E+03
(PID.TID 0000.0001) %MON dynstat_eta_min              =  -3.4554411337020E+03
(PID.TID 0000.0001) %MON dynstat_eta_mean             =  -1.8076758286773E+02
(PID.TID 0000.0001) %MON dynstat_eta_sd               =   1.0833051427319E+03
(PID.TID 0000.0001) %MON dynstat_uvel_max             =   5.9234026198567E+01
(PID.TID 0000.0001) %MON dynstat_uvel_min             =  -2.3305928899500E+01
(PID.TID 0000.0001) %MON dynstat_uvel_mean            =   6.9658314428633E+00
(PID.TID 0000.0001) %MON dynstat_uvel_sd              =   1.2567454200571E+01
(PID.TID 0000.0001) %MON dynstat_vvel_max             =   3.1023858629198E+01
(PID.TID 0000.0001) %MON dynstat_vvel_min             =  -3.3897803051832E+01
(PID.TID 0000.0001) %MON dynstat_vvel_mean            =  -4.8441089130264E-02
(PID.TID 0000.0001) %MON dynstat_vvel_sd              =   6.0549668440654E+00
(PID.TID 0000.0001) %MON dynstat_wvel_max             =   0.0000000000000E+00
(PID.TID 0000.0001) %MON dynstat_wvel_min             =   0.0000000000000E+00
(PID.TID 0000.0001) %MON dynstat_wvel_mean            =   0.0000000000000E+00
(PID.TID 0000.0001) %MON dynstat_wvel_sd              =   0.0000000000000E+00
(PID.TID 0000.0001) %MON dynstat_theta_max            =   4.7622213946609E+02
(PID.TID 0000.0001) %MON dynstat_theta_min            =   2.3873173128828E+02
(PID.TID 0000.0001) %MON dynstat_theta_mean           =   3.3325324940755E+02
(PID.TID 0000.0001) %MON dynstat_theta_sd             =   6.3592091608507E+01
(PID.TID 0000.0001) %MON dynstat_salt_max             =   1.6480298547041E+01
(PID.TID 0000.0001) %MON dynstat_salt_min             =  -4.4628398205528E+00
(PID.TID 0000.0001) %MON dynstat_salt_mean            =   1.9459259237544E+00
(PID.TID 0000.0001) %MON dynstat_salt_sd              =   3.4372173230178E+00
(PID.TID 0000.0001) %MON advcfl_uvel_max              =   3.2236131636687E-01
(PID.TID 0000.0001) %MON advcfl_vvel_max              =   4.8783699833863E-02
(PID.TID 0000.0001) %MON advcfl_wvel_max              =   0.0000000000000E+00
(PID.TID 0000.0001) %MON advcfl_W_hf_max              =   0.0000000000000E+00
(PID.TID 0000.0001) %MON ke_max                       =   1.8253546299510E+03
(PID.TID 0000.0001) %MON ke_mean                      =   1.2043979333365E+02
(PID.TID 0000.0001) // =======================================================
(PID.TID 0000.0001) // End MONITOR dynamic field statistics
(PID.TID 0000.0001) // =======================================================
(PID.TID 0000.0001)  MDSREADFIELD: opening global file: salb.apr.sun.b
(PID.TID 0000.0001)  MDSREADFIELD: opening global file: tsurf.apr.sun.b
(PID.TID 0000.0001)  MDSREADFIELD: opening global file: smoist.apr.sun.b
 cg2d: Sum(rhs),rhsMax =  -1.15659393173928E-09  6.56990952561181E+02
(PID.TID 0000.0001)                    cg2d_init_res =    1.72601374199255E+01
(PID.TID 0000.0001)                       cg2d_iters =   131
(PID.TID 0000.0001)                         cg2d_res =    2.48813381401711E-12
(PID.TID 0000.0001) // =======================================================
(PID.TID 0000.0001) // Begin MONITOR dynamic field statistics
(PID.TID 0000.0001) // =======================================================
(PID.TID 0000.0001) %MON time_tsnumber                =                 17281
(PID.TID 0000.0001) %MON time_secondsf                =   7.7764500000000E+06
(PID.TID 0000.0001) %MON time_secondsi                =               7776450
(PID.TID 0000.0001) %MON dynstat_eta_max              =   2.4171887922572E+03
(PID.TID 0000.0001) %MON dynstat_eta_min              =  -3.4551168853273E+03
(PID.TID 0000.0001) %MON dynstat_eta_mean             =  -1.8090790548053E+02
(PID.TID 0000.0001) %MON dynstat_eta_sd               =   1.0831346412736E+03
(PID.TID 0000.0001) %MON dynstat_uvel_max             =   5.9219410472439E+01
(PID.TID 0000.0001) %MON dynstat_uvel_min             =  -2.3308768257975E+01
(PID.TID 0000.0001) %MON dynstat_uvel_mean            =   6.9663073341247E+00
(PID.TID 0000.0001) %MON dynstat_uvel_sd              =   1.2568046109016E+01
(PID.TID 0000.0001) %MON dynstat_vvel_max             =   3.0999506500796E+01
(PID.TID 0000.0001) %MON dynstat_vvel_min             =  -3.3930283086148E+01
(PID.TID 0000.0001) %MON dynstat_vvel_mean            =  -4.8503242061708E-02
(PID.TID 0000.0001) %MON dynstat_vvel_sd              =   6.0539522756251E+00
(PID.TID 0000.0001) %MON dynstat_wvel_max             =   1.5343139326018E+00
(PID.TID 0000.0001) %MON dynstat_wvel_min             =  -1.4119027585144E+00
(PID.TID 0000.0001) %MON dynstat_wvel_mean            =   3.8757236776479E-04
(PID.TID 0000.0001) %MON dynstat_wvel_sd              =   6.1865557788660E-02
(PID.TID 0000.0001) %MON dynstat_theta_max            =   4.7621095240908E+02
(PID.TID 0000.0001) %MON dynstat_theta_min            =   2.3881613070069E+02
(PID.TID 0000.0001) %MON dynstat_theta_mean           =   3.3325549617066E+02
(PID.TID 0000.0001) %MON dynstat_theta_sd             =   6.3589625114350E+01
(PID.TID 0000.0001) %MON dynstat_salt_max             =   1.6433554911815E+01
(PID.TID 0000.0001) %MON dynstat_salt_min             =  -4.4530279940403E+00
(PID.TID 0000.0001) %MON dynstat_salt_mean            =   1.9461589774286E+00
(PID.TID 0000.0001) %MON dynstat_salt_sd              =   3.4372686356339E+00
(PID.TID 0000.0001) %MON advcfl_uvel_max              =   3.2231215320520E-01
(PID.TID 0000.0001) %MON advcfl_vvel_max              =   4.8830443165348E-02
(PID.TID 0000.0001) %MON advcfl_wvel_max              =   4.6293879156591E-02
(PID.TID 0000.0001) %MON advcfl_W_hf_max              =   4.5147843608953E-02
(PID.TID 0000.0001) %MON ke_max                       =   1.8244669420722E+03
(PID.TID 0000.0001) %MON ke_mean                      =   1.2044448690040E+02
(PID.TID 0000.0001) // =======================================================
(PID.TID 0000.0001) // End MONITOR dynamic field statistics
(PID.TID 0000.0001) // =======================================================
 cg2d: Sum(rhs),rhsMax =  -1.25443255782898E-09  6.56268270476250E+02
(PID.TID 0000.0001)                    cg2d_init_res =    1.73926356996347E+01
(PID.TID 0000.0001)                       cg2d_iters =   136
(PID.TID 0000.0001)                         cg2d_res =    2.63284718074649E-12
(PID.TID 0000.0001) // =======================================================
(PID.TID 0000.0001) // Begin MONITOR dynamic field statistics
(PID.TID 0000.0001) // =======================================================
(PID.TID 0000.0001) %MON time_tsnumber                =                 17282
(PID.TID 0000.0001) %MON time_secondsf                =   7.7769000000000E+06
(PID.TID 0000.0001) %MON time_secondsi                =               7776900
(PID.TID 0000.0001) %MON dynstat_eta_max              =   2.4166552082273E+03
(PID.TID 0000.0001) %MON dynstat_eta_min              =  -3.4547702551683E+03
(PID.TID 0000.0001) %MON dynstat_eta_mean             =  -1.8104519315026E+02
(PID.TID 0000.0001) %MON dynstat_eta_sd               =   1.0829548114290E+03
(PID.TID 0000.0001) %MON dynstat_uvel_max             =   5.9203287198700E+01
(PID.TID 0000.0001) %MON dynstat_uvel_min             =  -2.3310327748952E+01
(PID.TID 0000.0001) %MON dynstat_uvel_mean            =   6.9667797227798E+00
(PID.TID 0000.0001) %MON dynstat_uvel_sd              =   1.2568648388140E+01
(PID.TID 0000.0001) %MON dynstat_vvel_max             =   3.0972849925443E+01
(PID.TID 0000.0001) %MON dynstat_vvel_min             =  -3.3960393697654E+01
(PID.TID 0000.0001) %MON dynstat_vvel_mean            =  -4.8601356137721E-02
(PID.TID 0000.0001) %MON dynstat_vvel_sd              =   6.0529069985629E+00
(PID.TID 0000.0001) %MON dynstat_wvel_max             =   1.5312354272087E+00
(PID.TID 0000.0001) %MON dynstat_wvel_min             =  -1.4103997598732E+00
(PID.TID 0000.0001) %MON dynstat_wvel_mean            =   3.8738152905255E-04
(PID.TID 0000.0001) %MON dynstat_wvel_sd              =   6.1877930746280E-02
(PID.TID 0000.0001) %MON dynstat_theta_max            =   4.7620456493328E+02
(PID.TID 0000.0001) %MON dynstat_theta_min            =   2.3889877376323E+02
(PID.TID 0000.0001) %MON dynstat_theta_mean           =   3.3325773048550E+02
(PID.TID 0000.0001) %MON dynstat_theta_sd             =   6.3587185316006E+01
(PID.TID 0000.0001) %MON dynstat_salt_max             =   1.6392635966347E+01
(PID.TID 0000.0001) %MON dynstat_salt_min             =  -4.4433607402465E+00
(PID.TID 0000.0001) %MON dynstat_salt_mean            =   1.9463796679163E+00
(PID.TID 0000.0001) %MON dynstat_salt_sd              =   3.4372818252550E+00
(PID.TID 0000.0001) %MON advcfl_uvel_max              =   3.2226340554445E-01
(PID.TID 0000.0001) %MON advcfl_vvel_max              =   4.8873776564602E-02
(PID.TID 0000.0001) %MON advcfl_wvel_max              =   4.6333588631475E-02
(PID.TID 0000.0001) %MON advcfl_W_hf_max              =   4.5086970064854E-02
(PID.TID 0000.0001) %MON ke_max                       =   1.8234553832175E+03
(PID.TID 0000.0001) %MON ke_mean                      =   1.2044910765740E+02
(PID.TID 0000.0001) // =======================================================
(PID.TID 0000.0001) // End MONITOR dynamic field statistics
(PID.TID 0000.0001) // =======================================================
 cg2d: Sum(rhs),rhsMax =  -6.37836006234238E-10  6.55538223862022E+02
(PID.TID 0000.0001)                    cg2d_init_res =    1.73897587142563E+01
(PID.TID 0000.0001)                       cg2d_iters =   139
(PID.TID 0000.0001)                         cg2d_res =    2.38900673120204E-12
(PID.TID 0000.0001) // =======================================================
(PID.TID 0000.0001) // Begin MONITOR dynamic field statistics
(PID.TID 0000.0001) // =======================================================
(PID.TID 0000.0001) %MON time_tsnumber                =                 17283
(PID.TID 0000.0001) %MON time_secondsf                =   7.7773500000000E+06
(PID.TID 0000.0001) %MON time_secondsi                =               7777350
(PID.TID 0000.0001) %MON dynstat_eta_max              =   2.4159787301914E+03
(PID.TID 0000.0001) %MON dynstat_eta_min              =  -3.4543987957595E+03
(PID.TID 0000.0001) %MON dynstat_eta_mean             =  -1.8117940774005E+02
(PID.TID 0000.0001) %MON dynstat_eta_sd               =   1.0827685114307E+03
(PID.TID 0000.0001) %MON dynstat_uvel_max             =   5.9185625268929E+01
(PID.TID 0000.0001) %MON dynstat_uvel_min             =  -2.3310693898295E+01
(PID.TID 0000.0001) %MON dynstat_uvel_mean            =   6.9672469860554E+00
(PID.TID 0000.0001) %MON dynstat_uvel_sd              =   1.2569256785139E+01
(PID.TID 0000.0001) %MON dynstat_vvel_max             =   3.0943916094163E+01
(PID.TID 0000.0001) %MON dynstat_vvel_min             =  -3.3988091671018E+01
(PID.TID 0000.0001) %MON dynstat_vvel_mean            =  -4.8744680045199E-02
(PID.TID 0000.0001) %MON dynstat_vvel_sd              =   6.0518345842283E+00
(PID.TID 0000.0001) %MON dynstat_wvel_max             =   1.5280958670359E+00
(PID.TID 0000.0001) %MON dynstat_wvel_min             =  -1.4091098306733E+00
(PID.TID 0000.0001) %MON dynstat_wvel_mean            =   3.8809064780657E-04
(PID.TID 0000.0001) %MON dynstat_wvel_sd              =   6.1894388683849E-02
(PID.TID 0000.0001) %MON dynstat_theta_max            =   4.7619977875380E+02
(PID.TID 0000.0001) %MON dynstat_theta_min            =   2.3898048672721E+02
(PID.TID 0000.0001) %MON dynstat_theta_mean           =   3.3325994087331E+02
(PID.TID 0000.0001) %MON dynstat_theta_sd             =   6.3584773483853E+01
(PID.TID 0000.0001) %MON dynstat_salt_max             =   1.6407173516201E+01
(PID.TID 0000.0001) %MON dynstat_salt_min             =  -4.4336282713124E+00
(PID.TID 0000.0001) %MON dynstat_salt_mean            =   1.9465946180138E+00
(PID.TID 0000.0001) %MON dynstat_salt_sd              =   3.4372919724488E+00
(PID.TID 0000.0001) %MON advcfl_uvel_max              =   3.2221326358662E-01
(PID.TID 0000.0001) %MON advcfl_vvel_max              =   4.8913637838695E-02
(PID.TID 0000.0001) %MON advcfl_wvel_max              =   4.6360493033427E-02
(PID.TID 0000.0001) %MON advcfl_W_hf_max              =   4.4974979828802E-02
(PID.TID 0000.0001) %MON ke_max                       =   1.8223177285323E+03
(PID.TID 0000.0001) %MON ke_mean                      =   1.2045361291259E+02
(PID.TID 0000.0001) // =======================================================
(PID.TID 0000.0001) // End MONITOR dynamic field statistics
(PID.TID 0000.0001) // =======================================================
 cg2d: Sum(rhs),rhsMax =  -1.12026876664117E-09  6.54809696195160E+02
(PID.TID 0000.0001)                    cg2d_init_res =    1.74074542054695E+01
(PID.TID 0000.0001)                       cg2d_iters =   139
(PID.TID 0000.0001)                         cg2d_res =    2.71572258301132E-12
(PID.TID 0000.0001) // =======================================================
(PID.TID 0000.0001) // Begin MONITOR dynamic field statistics
(PID.TID 0000.0001) // =======================================================
(PID.TID 0000.0001) %MON time_tsnumber                =                 17284
(PID.TID 0000.0001) %MON time_secondsf                =   7.7778000000000E+06
(PID.TID 0000.0001) %MON time_secondsi                =               7777800
(PID.TID 0000.0001) %MON dynstat_eta_max              =   2.4152616283540E+03
(PID.TID 0000.0001) %MON dynstat_eta_min              =  -3.4539911464156E+03
(PID.TID 0000.0001) %MON dynstat_eta_mean             =  -1.8131138513083E+02
(PID.TID 0000.0001) %MON dynstat_eta_sd               =   1.0825775779383E+03
(PID.TID 0000.0001) %MON dynstat_uvel_max             =   5.9166411016210E+01
(PID.TID 0000.0001) %MON dynstat_uvel_min             =  -2.3310028295778E+01
(PID.TID 0000.0001) %MON dynstat_uvel_mean            =   6.9677075876281E+00
(PID.TID 0000.0001) %MON dynstat_uvel_sd              =   1.2569868141684E+01
(PID.TID 0000.0001) %MON dynstat_vvel_max             =   3.0912694731396E+01
(PID.TID 0000.0001) %MON dynstat_vvel_min             =  -3.4013318269588E+01
(PID.TID 0000.0001) %MON dynstat_vvel_mean            =  -4.8940733111520E-02
(PID.TID 0000.0001) %MON dynstat_vvel_sd              =   6.0507369751495E+00
(PID.TID 0000.0001) %MON dynstat_wvel_max             =   1.5251320633834E+00
(PID.TID 0000.0001) %MON dynstat_wvel_min             =  -1.4079187426068E+00
(PID.TID 0000.0001) %MON dynstat_wvel_mean            =   3.8919770000067E-04
(PID.TID 0000.0001) %MON dynstat_wvel_sd              =   6.1911493752674E-02
(PID.TID 0000.0001) %MON dynstat_theta_max            =   4.7619464333381E+02
(PID.TID 0000.0001) %MON dynstat_theta_min            =   2.3906153814128E+02
(PID.TID 0000.0001) %MON dynstat_theta_mean           =   3.3326213943893E+02
(PID.TID 0000.0001) %MON dynstat_theta_sd             =   6.3582390140543E+01
(PID.TID 0000.0001) %MON dynstat_salt_max             =   1.6414849023277E+01
(PID.TID 0000.0001) %MON dynstat_salt_min             =  -4.4240067082284E+00
(PID.TID 0000.0001) %MON dynstat_salt_mean            =   1.9468023368452E+00
(PID.TID 0000.0001) %MON dynstat_salt_sd              =   3.4372985452648E+00
(PID.TID 0000.0001) %MON advcfl_uvel_max              =   3.2216130479071E-01
(PID.TID 0000.0001) %MON advcfl_vvel_max              =   4.8949942457334E-02
(PID.TID 0000.0001) %MON advcfl_wvel_max              =   4.6384673596556E-02
(PID.TID 0000.0001) %MON advcfl_W_hf_max              =   4.4852982622075E-02
(PID.TID 0000.0001) %MON ke_max                       =   1.8210546253375E+03
(PID.TID 0000.0001) %MON ke_mean                      =   1.2045796452647E+02
(PID.TID 0000.0001) // =======================================================
(PID.TID 0000.0001) // End MONITOR dynamic field statistics
(PID.TID 0000.0001) // =======================================================
 cg2d: Sum(rhs),rhsMax =  -7.23300530580673E-10  6.54079390989064E+02
(PID.TID 0000.0001)                    cg2d_init_res =    1.76076434628523E+01
(PID.TID 0000.0001)                       cg2d_iters =   136
(PID.TID 0000.0001)                         cg2d_res =    2.73335964883581E-12
(PID.TID 0000.0001) // =======================================================
(PID.TID 0000.0001) // Begin MONITOR dynamic field statistics
(PID.TID 0000.0001) // =======================================================
(PID.TID 0000.0001) %MON time_tsnumber                =                 17285
(PID.TID 0000.0001) %MON time_secondsf                =   7.7782500000000E+06
(PID.TID 0000.0001) %MON time_secondsi                =               7778250
(PID.TID 0000.0001) %MON dynstat_eta_max              =   2.4145130922939E+03
(PID.TID 0000.0001) %MON dynstat_eta_min              =  -3.4535293647914E+03
(PID.TID 0000.0001) %MON dynstat_eta_mean             =  -1.8144241815241E+02
(PID.TID 0000.0001) %MON dynstat_eta_sd               =   1.0823821022827E+03
(PID.TID 0000.0001) %MON dynstat_uvel_max             =   5.9150130225465E+01
(PID.TID 0000.0001) %MON dynstat_uvel_min             =  -2.3308428810666E+01
(PID.TID 0000.0001) %MON dynstat_uvel_mean            =   6.9681604366049E+00
(PID.TID 0000.0001) %MON dynstat_uvel_sd              =   1.2570480257658E+01
(PID.TID 0000.0001) %MON dynstat_vvel_max             =   3.0879198350299E+01
(PID.TID 0000.0001) %MON dynstat_vvel_min             =  -3.4036023875084E+01
(PID.TID 0000.0001) %MON dynstat_vvel_mean            =  -4.9194162468690E-02
(PID.TID 0000.0001) %MON dynstat_vvel_sd              =   6.0496148751431E+00
(PID.TID 0000.0001) %MON dynstat_wvel_max             =   1.5223364389641E+00
(PID.TID 0000.0001) %MON dynstat_wvel_min             =  -1.4067763553858E+00
(PID.TID 0000.0001) %MON dynstat_wvel_mean            =   3.9006211840196E-04
(PID.TID 0000.0001) %MON dynstat_wvel_sd              =   6.1927847069308E-02
(PID.TID 0000.0001) %MON dynstat_theta_max            =   4.7618915350849E+02
(PID.TID 0000.0001) %MON dynstat_theta_min            =   2.3914211000665E+02
(PID.TID 0000.0001) %MON dynstat_theta_mean           =   3.3326432870859E+02
(PID.TID 0000.0001) %MON dynstat_theta_sd             =   6.3580026875288E+01
(PID.TID 0000.0001) %MON dynstat_salt_max             =   1.6421546947458E+01
(PID.TID 0000.0001) %MON dynstat_salt_min             =  -4.4140008120260E+00
(PID.TID 0000.0001) %MON dynstat_salt_mean            =   1.9470004350426E+00
(PID.TID 0000.0001) %MON dynstat_salt_sd              =   3.4372946336943E+00
(PID.TID 0000.0001) %MON advcfl_uvel_max              =   3.2210822665001E-01
(PID.TID 0000.0001) %MON advcfl_vvel_max              =   4.8982619012843E-02
(PID.TID 0000.0001) %MON advcfl_wvel_max              =   4.6411627659649E-02
(PID.TID 0000.0001) %MON advcfl_W_hf_max              =   4.4758137788279E-02
(PID.TID 0000.0001) %MON ke_max                       =   1.8196662129468E+03
(PID.TID 0000.0001) %MON ke_mean                      =   1.2046213195681E+02
(PID.TID 0000.0001) // =======================================================
(PID.TID 0000.0001) // End MONITOR dynamic field statistics
(PID.TID 0000.0001) // =======================================================
 cg2d: Sum(rhs),rhsMax =  -9.48553680046871E-10  6.53344165279228E+02
(PID.TID 0000.0001)                    cg2d_init_res =    1.76292301650057E+01
(PID.TID 0000.0001)                       cg2d_iters =   136
(PID.TID 0000.0001)                         cg2d_res =    2.46611162787204E-12
(PID.TID 0000.0001) // =======================================================
(PID.TID 0000.0001) // Begin MONITOR dynamic field statistics
(PID.TID 0000.0001) // =======================================================
(PID.TID 0000.0001) %MON time_tsnumber                =                 17286
(PID.TID 0000.0001) %MON time_secondsf                =   7.7787000000000E+06
(PID.TID 0000.0001) %MON time_secondsi                =               7778700
(PID.TID 0000.0001) %MON dynstat_eta_max              =   2.4137983624812E+03
(PID.TID 0000.0001) %MON dynstat_eta_min              =  -3.4529937455859E+03
(PID.TID 0000.0001) %MON dynstat_eta_mean             =  -1.8157383315485E+02
(PID.TID 0000.0001) %MON dynstat_eta_sd               =   1.0821815551045E+03
(PID.TID 0000.0001) %MON dynstat_uvel_max             =   5.9161931661937E+01
(PID.TID 0000.0001) %MON dynstat_uvel_min             =  -2.3306210723138E+01
(PID.TID 0000.0001) %MON dynstat_uvel_mean            =   6.9686038804344E+00
(PID.TID 0000.0001) %MON dynstat_uvel_sd              =   1.2571089431901E+01
(PID.TID 0000.0001) %MON dynstat_vvel_max             =   3.0843405381038E+01
(PID.TID 0000.0001) %MON dynstat_vvel_min             =  -3.4056192401738E+01
(PID.TID 0000.0001) %MON dynstat_vvel_mean            =  -4.9506432698549E-02
(PID.TID 0000.0001) %MON dynstat_vvel_sd              =   6.0484699149559E+00
(PID.TID 0000.0001) %MON dynstat_wvel_max             =   1.5196693572024E+00
(PID.TID 0000.0001) %MON dynstat_wvel_min             =  -1.4056696384816E+00
(PID.TID 0000.0001) %MON dynstat_wvel_mean            =   3.8999271080392E-04
(PID.TID 0000.0001) %MON dynstat_wvel_sd              =   6.1946742175212E-02
(PID.TID 0000.0001) %MON dynstat_theta_max            =   4.7618329432186E+02
(PID.TID 0000.0001) %MON dynstat_theta_min            =   2.3922224134173E+02
(PID.TID 0000.0001) %MON dynstat_theta_mean           =   3.3326647413076E+02
(PID.TID 0000.0001) %MON dynstat_theta_sd             =   6.3577703852092E+01
(PID.TID 0000.0001) %MON dynstat_salt_max             =   1.6427731447690E+01
(PID.TID 0000.0001) %MON dynstat_salt_min             =  -4.4040171508773E+00
(PID.TID 0000.0001) %MON dynstat_salt_mean            =   1.9472035949590E+00
(PID.TID 0000.0001) %MON dynstat_salt_sd              =   3.4373043723985E+00
(PID.TID 0000.0001) %MON advcfl_uvel_max              =   3.2205529111127E-01
(PID.TID 0000.0001) %MON advcfl_vvel_max              =   4.9011644355544E-02
(PID.TID 0000.0001) %MON advcfl_wvel_max              =   4.6444459238808E-02
(PID.TID 0000.0001) %MON advcfl_W_hf_max              =   4.4700750927249E-02
(PID.TID 0000.0001) %MON ke_max                       =   1.8181531965915E+03
(PID.TID 0000.0001) %MON ke_mean                      =   1.2046606734852E+02
(PID.TID 0000.0001) // =======================================================
(PID.TID 0000.0001) // End MONITOR dynamic field statistics
(PID.TID 0000.0001) // =======================================================
 cg2d: Sum(rhs),rhsMax =  -1.62526569980059E-09  6.52601966006625E+02
(PID.TID 0000.0001)                    cg2d_init_res =    1.76042203464099E+01
(PID.TID 0000.0001)                       cg2d_iters =   136
(PID.TID 0000.0001)                         cg2d_res =    2.10450306960106E-12
(PID.TID 0000.0001) // =======================================================
(PID.TID 0000.0001) // Begin MONITOR dynamic field statistics
(PID.TID 0000.0001) // =======================================================
(PID.TID 0000.0001) %MON time_tsnumber                =                 17287
(PID.TID 0000.0001) %MON time_secondsf                =   7.7791500000000E+06
(PID.TID 0000.0001) %MON time_secondsi                =               7779150
(PID.TID 0000.0001) %MON dynstat_eta_max              =   2.4131859766242E+03
(PID.TID 0000.0001) %MON dynstat_eta_min              =  -3.4523626971506E+03
(PID.TID 0000.0001) %MON dynstat_eta_mean             =  -1.8170668009617E+02
(PID.TID 0000.0001) %MON dynstat_eta_sd               =   1.0819745706442E+03
(PID.TID 0000.0001) %MON dynstat_uvel_max             =   5.9172316356344E+01
(PID.TID 0000.0001) %MON dynstat_uvel_min             =  -2.3303705774044E+01
(PID.TID 0000.0001) %MON dynstat_uvel_mean            =   6.9690366682941E+00
(PID.TID 0000.0001) %MON dynstat_uvel_sd              =   1.2571692912102E+01
(PID.TID 0000.0001) %MON dynstat_vvel_max             =   3.0805656564070E+01
(PID.TID 0000.0001) %MON dynstat_vvel_min             =  -3.4073830227134E+01
(PID.TID 0000.0001) %MON dynstat_vvel_mean            =  -4.9876279217435E-02
(PID.TID 0000.0001) %MON dynstat_vvel_sd              =   6.0473004724546E+00
(PID.TID 0000.0001) %MON dynstat_wvel_max             =   1.5170747980636E+00
(PID.TID 0000.0001) %MON dynstat_wvel_min             =  -1.4045903617500E+00
(PID.TID 0000.0001) %MON dynstat_wvel_mean            =   3.8895966995742E-04
(PID.TID 0000.0001) %MON dynstat_wvel_sd              =   6.1963051137783E-02
(PID.TID 0000.0001) %MON dynstat_theta_max            =   4.7617705701708E+02
(PID.TID 0000.0001) %MON dynstat_theta_min            =   2.3930187664124E+02
(PID.TID 0000.0001) %MON dynstat_theta_mean           =   3.3326857201113E+02
(PID.TID 0000.0001) %MON dynstat_theta_sd             =   6.3575415946952E+01
(PID.TID 0000.0001) %MON dynstat_salt_max             =   1.6433777733014E+01
(PID.TID 0000.0001) %MON dynstat_salt_min             =  -4.3938702272864E+00
(PID.TID 0000.0001) %MON dynstat_salt_mean            =   1.9474129764775E+00
(PID.TID 0000.0001) %MON dynstat_salt_sd              =   3.4373471082666E+00
(PID.TID 0000.0001) %MON advcfl_uvel_max              =   3.2200389403410E-01
(PID.TID 0000.0001) %MON advcfl_vvel_max              =   4.9037027663675E-02
(PID.TID 0000.0001) %MON advcfl_wvel_max              =   4.6483091618538E-02
(PID.TID 0000.0001) %MON advcfl_W_hf_max              =   4.4673742707468E-02
(PID.TID 0000.0001) %MON ke_max                       =   1.8165169445309E+03
(PID.TID 0000.0001) %MON ke_mean                      =   1.2046971814843E+02
(PID.TID 0000.0001) // =======================================================
(PID.TID 0000.0001) // End MONITOR dynamic field statistics
(PID.TID 0000.0001) // =======================================================
 cg2d: Sum(rhs),rhsMax =  -1.26763621821624E-09  6.51852809576294E+02
(PID.TID 0000.0001)                    cg2d_init_res =    1.74685296860314E+01
(PID.TID 0000.0001)                       cg2d_iters =   135
(PID.TID 0000.0001)                         cg2d_res =    2.63818643209028E-12
(PID.TID 0000.0001) // =======================================================
(PID.TID 0000.0001) // Begin MONITOR dynamic field statistics
(PID.TID 0000.0001) // =======================================================
(PID.TID 0000.0001) %MON time_tsnumber                =                 17288
(PID.TID 0000.0001) %MON time_secondsf                =   7.7796000000000E+06
(PID.TID 0000.0001) %MON time_secondsi                =               7779600
(PID.TID 0000.0001) %MON dynstat_eta_max              =   2.4126782129983E+03
(PID.TID 0000.0001) %MON dynstat_eta_min              =  -3.4516152554666E+03
(PID.TID 0000.0001) %MON dynstat_eta_mean             =  -1.8184158992634E+02
(PID.TID 0000.0001) %MON dynstat_eta_sd               =   1.0817596917859E+03
(PID.TID 0000.0001) %MON dynstat_uvel_max             =   5.9181267024646E+01
(PID.TID 0000.0001) %MON dynstat_uvel_min             =  -2.3301214248704E+01
(PID.TID 0000.0001) %MON dynstat_uvel_mean            =   6.9694569766590E+00
(PID.TID 0000.0001) %MON dynstat_uvel_sd              =   1.2572288021693E+01
(PID.TID 0000.0001) %MON dynstat_vvel_max             =   3.0765799202787E+01
(PID.TID 0000.0001) %MON dynstat_vvel_min             =  -3.4089007829318E+01
(PID.TID 0000.0001) %MON dynstat_vvel_mean            =  -5.0300764162180E-02
(PID.TID 0000.0001) %MON dynstat_vvel_sd              =   6.0461080676405E+00
(PID.TID 0000.0001) %MON dynstat_wvel_max             =   1.5145111824483E+00
(PID.TID 0000.0001) %MON dynstat_wvel_min             =  -1.4035333461239E+00
(PID.TID 0000.0001) %MON dynstat_wvel_mean            =   3.8682819443105E-04
(PID.TID 0000.0001) %MON dynstat_wvel_sd              =   6.1972305343176E-02
(PID.TID 0000.0001) %MON dynstat_theta_max            =   4.7617044181936E+02
(PID.TID 0000.0001) %MON dynstat_theta_min            =   2.3938090781125E+02
(PID.TID 0000.0001) %MON dynstat_theta_mean           =   3.3327063433650E+02
(PID.TID 0000.0001) %MON dynstat_theta_sd             =   6.3573159227445E+01
(PID.TID 0000.0001) %MON dynstat_salt_max             =   1.6439666766794E+01
(PID.TID 0000.0001) %MON dynstat_salt_min             =  -4.3833298789798E+00
(PID.TID 0000.0001) %MON dynstat_salt_mean            =   1.9476232384932E+00
(PID.TID 0000.0001) %MON dynstat_salt_sd              =   3.4373983613772E+00
(PID.TID 0000.0001) %MON advcfl_uvel_max              =   3.2195532400846E-01
(PID.TID 0000.0001) %MON advcfl_vvel_max              =   4.9058870365045E-02
(PID.TID 0000.0001) %MON advcfl_wvel_max              =   4.6525268501343E-02
(PID.TID 0000.0001) %MON advcfl_W_hf_max              =   4.4663661238449E-02
(PID.TID 0000.0001) %MON ke_max                       =   1.8147582924475E+03
(PID.TID 0000.0001) %MON ke_mean                      =   1.2047304724511E+02
(PID.TID 0000.0001) // =======================================================
(PID.TID 0000.0001) // End MONITOR dynamic field statistics
(PID.TID 0000.0001) // =======================================================
 cg2d: Sum(rhs),rhsMax =  -8.25083557032258E-10  6.51097902890679E+02
(PID.TID 0000.0001)                    cg2d_init_res =    1.78827246112749E+01
(PID.TID 0000.0001)                       cg2d_iters =   133
(PID.TID 0000.0001)                         cg2d_res =    2.57411478401215E-12
(PID.TID 0000.0001) // =======================================================
(PID.TID 0000.0001) // Begin MONITOR dynamic field statistics
(PID.TID 0000.0001) // =======================================================
(PID.TID 0000.0001) %MON time_tsnumber                =                 17289
(PID.TID 0000.0001) %MON time_secondsf                =   7.7800500000000E+06
(PID.TID 0000.0001) %MON time_secondsi                =               7780050
(PID.TID 0000.0001) %MON dynstat_eta_max              =   2.4122351466565E+03
(PID.TID 0000.0001) %MON dynstat_eta_min              =  -3.4507288238130E+03
(PID.TID 0000.0001) %MON dynstat_eta_mean             =  -1.8197877874327E+02
(PID.TID 0000.0001) %MON dynstat_eta_sd               =   1.0815358949096E+03
(PID.TID 0000.0001) %MON dynstat_uvel_max             =   5.9188757180689E+01
(PID.TID 0000.0001) %MON dynstat_uvel_min             =  -2.3298897897222E+01
(PID.TID 0000.0001) %MON dynstat_uvel_mean            =   6.9698629962919E+00
(PID.TID 0000.0001) %MON dynstat_uvel_sd              =   1.2572873750473E+01
(PID.TID 0000.0001) %MON dynstat_vvel_max             =   3.0723207456335E+01
(PID.TID 0000.0001) %MON dynstat_vvel_min             =  -3.4101730315493E+01
(PID.TID 0000.0001) %MON dynstat_vvel_mean            =  -5.0776071334206E-02
(PID.TID 0000.0001) %MON dynstat_vvel_sd              =   6.0448957646359E+00
(PID.TID 0000.0001) %MON dynstat_wvel_max             =   1.5119460830381E+00
(PID.TID 0000.0001) %MON dynstat_wvel_min             =  -1.4024898042817E+00
(PID.TID 0000.0001) %MON dynstat_wvel_mean            =   3.8407062171304E-04
(PID.TID 0000.0001) %MON dynstat_wvel_sd              =   6.1976935930903E-02
(PID.TID 0000.0001) %MON dynstat_theta_max            =   4.7616345508501E+02
(PID.TID 0000.0001) %MON dynstat_theta_min            =   2.3945922150146E+02
(PID.TID 0000.0001) %MON dynstat_theta_mean           =   3.3327271111779E+02
(PID.TID 0000.0001) %MON dynstat_theta_sd             =   6.3570922101243E+01
(PID.TID 0000.0001) %MON dynstat_salt_max             =   1.6395258381304E+01
(PID.TID 0000.0001) %MON dynstat_salt_min             =  -4.3731061077001E+00
(PID.TID 0000.0001) %MON dynstat_salt_mean            =   1.9478166092515E+00
(PID.TID 0000.0001) %MON dynstat_salt_sd              =   3.4374147207960E+00
(PID.TID 0000.0001) %MON advcfl_uvel_max              =   3.2192496525892E-01
(PID.TID 0000.0001) %MON advcfl_vvel_max              =   4.9077179809635E-02
(PID.TID 0000.0001) %MON advcfl_wvel_max              =   4.6567915106635E-02
(PID.TID 0000.0001) %MON advcfl_W_hf_max              =   4.4657832072630E-02
(PID.TID 0000.0001) %MON ke_max                       =   1.8128768676406E+03
(PID.TID 0000.0001) %MON ke_mean                      =   1.2047604749241E+02
(PID.TID 0000.0001) // =======================================================
(PID.TID 0000.0001) // End MONITOR dynamic field statistics
(PID.TID 0000.0001) // =======================================================
 cg2d: Sum(rhs),rhsMax =  -7.10313585727818E-10  6.50339208141293E+02
(PID.TID 0000.0001)                    cg2d_init_res =    1.77578591445307E+01
(PID.TID 0000.0001)                       cg2d_iters =   135
(PID.TID 0000.0001)                         cg2d_res =    2.36077650723062E-12
(PID.TID 0000.0001) // =======================================================
(PID.TID 0000.0001) // Begin MONITOR dynamic field statistics
(PID.TID 0000.0001) // =======================================================
(PID.TID 0000.0001) %MON time_tsnumber                =                 17290
(PID.TID 0000.0001) %MON time_secondsf                =   7.7805000000000E+06
(PID.TID 0000.0001) %MON time_secondsi                =               7780500
(PID.TID 0000.0001) %MON dynstat_eta_max              =   2.4117953982468E+03
(PID.TID 0000.0001) %MON dynstat_eta_min              =  -3.4496882767687E+03
(PID.TID 0000.0001) %MON dynstat_eta_mean             =  -1.8211816704527E+02
(PID.TID 0000.0001) %MON dynstat_eta_sd               =   1.0813022101689E+03
(PID.TID 0000.0001) %MON dynstat_uvel_max             =   5.9194751518013E+01
(PID.TID 0000.0001) %MON dynstat_uvel_min             =  -2.3296807974667E+01
(PID.TID 0000.0001) %MON dynstat_uvel_mean            =   6.9702538304943E+00
(PID.TID 0000.0001) %MON dynstat_uvel_sd              =   1.2573448495011E+01
(PID.TID 0000.0001) %MON dynstat_vvel_max             =   3.0678652202947E+01
(PID.TID 0000.0001) %MON dynstat_vvel_min             =  -3.4111982660480E+01
(PID.TID 0000.0001) %MON dynstat_vvel_mean            =  -5.1298326807996E-02
(PID.TID 0000.0001) %MON dynstat_vvel_sd              =   6.0436661427729E+00
(PID.TID 0000.0001) %MON dynstat_wvel_max             =   1.5093620447190E+00
(PID.TID 0000.0001) %MON dynstat_wvel_min             =  -1.4014550089154E+00
(PID.TID 0000.0001) %MON dynstat_wvel_mean            =   3.8125165172626E-04
(PID.TID 0000.0001) %MON dynstat_wvel_sd              =   6.1988063815115E-02
(PID.TID 0000.0001) %MON dynstat_theta_max            =   4.7615610955674E+02
(PID.TID 0000.0001) %MON dynstat_theta_min            =   2.3953672006570E+02
(PID.TID 0000.0001) %MON dynstat_theta_mean           =   3.3327478079983E+02
(PID.TID 0000.0001) %MON dynstat_theta_sd             =   6.3568705129973E+01
(PID.TID 0000.0001) %MON dynstat_salt_max             =   1.6364882899993E+01
(PID.TID 0000.0001) %MON dynstat_salt_min             =  -4.3630073233618E+00
(PID.TID 0000.0001) %MON dynstat_salt_mean            =   1.9479973016536E+00
(PID.TID 0000.0001) %MON dynstat_salt_sd              =   3.4374060207015E+00
(PID.TID 0000.0001) %MON advcfl_uvel_max              =   3.2190453373288E-01
(PID.TID 0000.0001) %MON advcfl_vvel_max              =   4.9091934374102E-02
(PID.TID 0000.0001) %MON advcfl_wvel_max              =   4.6608739831113E-02
(PID.TID 0000.0001) %MON advcfl_W_hf_max              =   4.4647688473557E-02
(PID.TID 0000.0001) %MON ke_max                       =   1.8108716588041E+03
(PID.TID 0000.0001) %MON ke_mean                      =   1.2047870777498E+02
(PID.TID 0000.0001) // =======================================================
(PID.TID 0000.0001) // End MONITOR dynamic field statistics
(PID.TID 0000.0001) // =======================================================
(PID.TID 0000.0001)  Seconds in section "ALL                [THE_MODEL_MAIN]":
(PID.TID 0000.0001)          User time:   24.68999862670898
(PID.TID 0000.0001)        System time:  0.2500000000000000
(PID.TID 0000.0001)    Wall clock time:   24.95354008674622
(PID.TID 0000.0001)         No. starts:           1
(PID.TID 0000.0001)          No. stops:           1
(PID.TID 0000.0001)  Seconds in section "INITIALISE_FIXED   [THE_MODEL_MAIN]":
(PID.TID 0000.0001)          User time:  0.2599999904632568
(PID.TID 0000.0001)        System time:  2.9999999329447746E-002
(PID.TID 0000.0001)    Wall clock time:  0.2966560125350952
(PID.TID 0000.0001)         No. starts:           1
(PID.TID 0000.0001)          No. stops:           1
(PID.TID 0000.0001)  Seconds in section "THE_MAIN_LOOP      [THE_MODEL_MAIN]":
(PID.TID 0000.0001)          User time:   24.36999917030334
(PID.TID 0000.0001)        System time:  0.1999999899417162
(PID.TID 0000.0001)    Wall clock time:   24.57351100444794
(PID.TID 0000.0001)         No. starts:           1
(PID.TID 0000.0001)          No. stops:           1
(PID.TID 0000.0001)  Seconds in section "INITIALISE_VARIA    [THE_MAIN_LOOP]":
(PID.TID 0000.0001)          User time:  0.1699999868869781
(PID.TID 0000.0001)        System time:  5.9999996796250343E-002
(PID.TID 0000.0001)    Wall clock time:  0.2300230264663696
(PID.TID 0000.0001)         No. starts:           1
(PID.TID 0000.0001)          No. stops:           1
(PID.TID 0000.0001)  Seconds in section "WRITE_STATE         [THE_MAIN_LOOP]":
(PID.TID 0000.0001)          User time:  2.0000010728836060E-002
(PID.TID 0000.0001)        System time:  2.0000003278255463E-002
(PID.TID 0000.0001)    Wall clock time:  3.6067962646484375E-002
(PID.TID 0000.0001)         No. starts:           1
(PID.TID 0000.0001)          No. stops:           1
(PID.TID 0000.0001)  Seconds in section "MONITOR             [THE_MAIN_LOOP]":
(PID.TID 0000.0001)          User time:  5.0000011920928955E-002
(PID.TID 0000.0001)        System time:  0.0000000000000000E+000
(PID.TID 0000.0001)    Wall clock time:  5.4067015647888184E-002
(PID.TID 0000.0001)         No. starts:           1
(PID.TID 0000.0001)          No. stops:           1
(PID.TID 0000.0001)  Seconds in section "MAIN LOOP           [THE_MAIN_LOOP]":
(PID.TID 0000.0001)          User time:   24.12999916076660
(PID.TID 0000.0001)        System time:  0.1199999898672104
(PID.TID 0000.0001)    Wall clock time:   24.25260090827942
(PID.TID 0000.0001)         No. starts:           1
(PID.TID 0000.0001)          No. stops:           1
(PID.TID 0000.0001)  Seconds in section "FORWARD_STEP        [THE_MAIN_LOOP]":
(PID.TID 0000.0001)          User time:   24.12999916076660
(PID.TID 0000.0001)        System time:  0.1199999898672104
(PID.TID 0000.0001)    Wall clock time:   24.25097799301147
(PID.TID 0000.0001)         No. starts:          10
(PID.TID 0000.0001)          No. stops:          10
(PID.TID 0000.0001)  Seconds in section "EXTERNAL_FIELDS_LOAD[THE_MAIN_LOOP]":
(PID.TID 0000.0001)          User time:  1.0000228881835938E-002
(PID.TID 0000.0001)        System time:  0.0000000000000000E+000
(PID.TID 0000.0001)    Wall clock time:  5.2268505096435547E-003
(PID.TID 0000.0001)         No. starts:          10
(PID.TID 0000.0001)          No. stops:          10
(PID.TID 0000.0001)  Seconds in section "THERMODYNAMICS      [THE_MAIN_LOOP]":
(PID.TID 0000.0001)          User time:   7.800002098083496
(PID.TID 0000.0001)        System time:  8.9999988675117493E-002
(PID.TID 0000.0001)    Wall clock time:   7.887416005134583
(PID.TID 0000.0001)         No. starts:          10
(PID.TID 0000.0001)          No. stops:          10
(PID.TID 0000.0001)  Seconds in section "AIM_DO_ATMOS_PHYS      [DYNAMICS]":
(PID.TID 0000.0001)          User time:   5.049999237060547
(PID.TID 0000.0001)        System time:  5.9999987483024597E-002
(PID.TID 0000.0001)    Wall clock time:   5.094019055366516
(PID.TID 0000.0001)         No. starts:          10
(PID.TID 0000.0001)          No. stops:          10
(PID.TID 0000.0001)  Seconds in section "DYNAMICS            [THE_MAIN_LOOP]":
(PID.TID 0000.0001)          User time:   4.170000910758972
(PID.TID 0000.0001)        System time:  1.0000005364418030E-002
(PID.TID 0000.0001)    Wall clock time:   4.185958027839661
(PID.TID 0000.0001)         No. starts:          10
(PID.TID 0000.0001)          No. stops:          10
(PID.TID 0000.0001)  Seconds in section "SOLVE_FOR_PRESSURE  [THE_MAIN_LOOP]":
(PID.TID 0000.0001)          User time:   7.789996743202209
(PID.TID 0000.0001)        System time:  0.0000000000000000E+000
(PID.TID 0000.0001)    Wall clock time:   7.802516818046570
(PID.TID 0000.0001)         No. starts:          10
(PID.TID 0000.0001)          No. stops:          10
(PID.TID 0000.0001)  Seconds in section "THE_CORRECTION_STEP [THE_MAIN_LOOP]":
(PID.TID 0000.0001)          User time:   3.710000514984131
(PID.TID 0000.0001)        System time:  1.0000005364418030E-002
(PID.TID 0000.0001)    Wall clock time:   3.716255784034729
(PID.TID 0000.0001)         No. starts:          10
(PID.TID 0000.0001)          No. stops:          10
(PID.TID 0000.0001)  Seconds in section "BLOCKING_EXCHANGES  [THE_MAIN_LOOP]":
(PID.TID 0000.0001)          User time:  9.9999904632568359E-003
(PID.TID 0000.0001)        System time:  0.0000000000000000E+000
(PID.TID 0000.0001)    Wall clock time:  3.2637119293212891E-002
(PID.TID 0000.0001)         No. starts:          10
(PID.TID 0000.0001)          No. stops:          10
(PID.TID 0000.0001)  Seconds in section "DO_THE_MODEL_IO     [THE_MAIN_LOOP]":
(PID.TID 0000.0001)          User time:  2.0000457763671875E-002
(PID.TID 0000.0001)        System time:  9.9999904632568359E-003
(PID.TID 0000.0001)    Wall clock time:  3.5139203071594238E-002
(PID.TID 0000.0001)         No. starts:          10
(PID.TID 0000.0001)          No. stops:          10
(PID.TID 0000.0001)  Seconds in section "WRITE_CHECKPOINT    [THE_MAIN_LOOP]":
(PID.TID 0000.0001)          User time:  0.0000000000000000E+000
(PID.TID 0000.0001)        System time:  0.0000000000000000E+000
(PID.TID 0000.0001)    Wall clock time:  1.4990568161010742E-003
(PID.TID 0000.0001)         No. starts:          10
(PID.TID 0000.0001)          No. stops:          10
(PID.TID 0000.0001)  Seconds in section "WRITE_CHECKPOINT   [THE_MODEL_MAIN]":
(PID.TID 0000.0001)          User time:  5.9999465942382813E-002
(PID.TID 0000.0001)        System time:  2.0000010728836060E-002
(PID.TID 0000.0001)    Wall clock time:  8.2710981369018555E-002
(PID.TID 0000.0001)         No. starts:           1
(PID.TID 0000.0001)          No. stops:           1
(PID.TID 0000.0001) // ====================================NORMAL END
==================
(PID.TID 0000.0001) // Tile <-> Tile communication statistics
(PID.TID 0000.0001) // ======================================================
(PID.TID 0000.0001) // o Tile number: 000001
(PID.TID 0000.0001) //         No. X exchanges =              0
(PID.TID 0000.0001) //            Max. X spins =              0
(PID.TID 0000.0001) //            Min. X spins =     1000000000
(PID.TID 0000.0001) //          Total. X spins =              0
(PID.TID 0000.0001) //            Avg. X spins =       0.00E+00
(PID.TID 0000.0001) //         No. Y exchanges =              0
(PID.TID 0000.0001) //            Max. Y spins =              0
(PID.TID 0000.0001) //            Min. Y spins =     1000000000
(PID.TID 0000.0001) //          Total. Y spins =              0
(PID.TID 0000.0001) //            Avg. Y spins =       0.00E+00
(PID.TID 0000.0001) // o Thread number: 000001
(PID.TID 0000.0001) //            No. barriers =          18793
(PID.TID 0000.0001) //      Max. barrier spins =              1
(PID.TID 0000.0001) //      Min. barrier spins =              1
(PID.TID 0000.0001) //     Total barrier spins =          18793
(PID.TID 0000.0001) //      Avg. barrier spins =       1.00E+00
