(PID.TID 0000.0001) 
(PID.TID 0000.0001) // ======================================================
(PID.TID 0000.0001) //                      MITgcm UV
(PID.TID 0000.0001) //                      =========
(PID.TID 0000.0001) // ======================================================
(PID.TID 0000.0001) // execution environment starting up...
(PID.TID 0000.0001) // Run starting Wed Apr  1 14:19:48 1998
(PID.TID 0000.0001) // on melville.lcs.mit.edu
(PID.TID 0000.0001) // account cnh
(PID.TID 0000.0001) // MITgcm UV Release: $Name:  $
(PID.TID 0000.0001) 
(PID.TID 0000.0001) // =======================================================
(PID.TID 0000.0001) // Execution Environment parameter file "eedata"
(PID.TID 0000.0001) // =======================================================
(PID.TID 0000.0001) ># Example "eedata" file
(PID.TID 0000.0001) ># Lines beginning "#" are comments
(PID.TID 0000.0001) ># nTx - No. threads per process in X
(PID.TID 0000.0001) ># nTy - No. threads per process in Y
(PID.TID 0000.0001) > &EEPARMS
(PID.TID 0000.0001) > &
(PID.TID 0000.0001) ># Note: Some systems use & as the
(PID.TID 0000.0001) ># namelist terminator. Other systems
(PID.TID 0000.0001) ># use a / character (as shown here).
(PID.TID 0000.0001) 
(PID.TID 0000.0001) // =======================================================
(PID.TID 0000.0001) // Computational Grid Specification ( see files "SIZE.h" )
(PID.TID 0000.0001) //                                  ( and "eedata"       )
(PID.TID 0000.0001) // =======================================================
(PID.TID 0000.0001)      nPx =    1 ; /* No. processes in X */
(PID.TID 0000.0001)      nPy =    1 ; /* No. processes in Y */
(PID.TID 0000.0001)      nSx =    1 ; /* No. tiles in X per process */
(PID.TID 0000.0001)      nSy =    1 ; /* No. tiles in Y per process */
(PID.TID 0000.0001)      sNx =  128 ; /* Tile size in X */
(PID.TID 0000.0001)      sNy =   64 ; /* Tile size in Y */
(PID.TID 0000.0001)      OLx =    5 ; /* Tile overlap distance in X */
(PID.TID 0000.0001)      OLy =    5 ; /* Tile overlap distance in Y */
(PID.TID 0000.0001)      nTx =    1 ; /* No. threads in X per process */
(PID.TID 0000.0001)      nTy =    1 ; /* No. threads in Y per process */
(PID.TID 0000.0001)       Nr =    5 ; /* No. levels in the vertical   */
(PID.TID 0000.0001)       nX =  128 ; /* Total domain size in X ( = nPx*nSx*sNx ) */
(PID.TID 0000.0001)       nY =   64 ; /* Total domain size in Y ( = nPy*nSy*sNy ) */
(PID.TID 0000.0001)   nTiles =    1 ; /* Total no. tiles per process ( = nSx*nSy ) */
(PID.TID 0000.0001)   nProcs =    1 ; /* Total no. processes ( = nPx*nPy ) */
(PID.TID 0000.0001) nThreads =    1 ; /* Total no. threads per process ( = nTx*nTy ) */
(PID.TID 0000.0001) usingMPI =    F ; /* Flag used to control whether MPI is in use */
(PID.TID 0000.0001)                   /*  note: To execute a program with MPI calls */
(PID.TID 0000.0001)                   /*  it must be launched appropriately e.g     */
(PID.TID 0000.0001)                   /*  "mpirun -np 64 ......"                    */
(PID.TID 0000.0001) 
(PID.TID 0000.0001) // ======================================================
(PID.TID 0000.0001) // Mapping of tiles to threads
(PID.TID 0000.0001) // ======================================================
(PID.TID 0000.0001) // -o- Thread   1, tiles (   1:   1,   1:   1)
(PID.TID 0000.0001) 
(PID.TID 0000.0001) // ======================================================
(PID.TID 0000.0001) // Tile <-> Tile connectvity table
(PID.TID 0000.0001) // ======================================================
(PID.TID 0000.0001) // Tile number: 000001 (process no. = 000001)
(PID.TID 0000.0001) //        WEST: Tile = 000001, Process = 000001, Comm = put
(PID.TID 0000.0001) //                bi = 000001, bj = 000001
(PID.TID 0000.0001) //        EAST: Tile = 000001, Process = 000001, Comm = put
(PID.TID 0000.0001) //                bi = 000001, bj = 000001
(PID.TID 0000.0001) //       SOUTH: Tile = 000001, Process = 000001, Comm = put
(PID.TID 0000.0001) //                bi = 000001, bj = 000001
(PID.TID 0000.0001) //       NORTH: Tile = 000001, Process = 000001, Comm = put
(PID.TID 0000.0001) //                bi = 000001, bj = 000001
(PID.TID 0000.0001) 
(PID.TID 0000.0001) // =======================================================
(PID.TID 0000.0001) // Model parameter file "data"
(PID.TID 0000.0001) // =======================================================
(PID.TID 0000.0001) ># ====================
(PID.TID 0000.0001) ># | Model parameters |
(PID.TID 0000.0001) ># ====================
(PID.TID 0000.0001) >#
(PID.TID 0000.0001) ># Continuous equation parameters
(PID.TID 0000.0001) > &PARM01
(PID.TID 0000.0001) > tRef=281.089, 289.321, 307.191, 331.377, 432.413,
(PID.TID 0000.0001) > sRef=5*0.,
(PID.TID 0000.0001) > viscAr=0.E3,
(PID.TID 0000.0001) > viscAh=0.E6,
(PID.TID 0000.0001) > viscA4=0.E17,
(PID.TID 0000.0001) > no_slip_sides=.FALSE.,
(PID.TID 0000.0001) > no_slip_bottom=.FALSE.,
(PID.TID 0000.0001) > diffKhT=0.E3,
(PID.TID 0000.0001) > diffKrT=0.,
(PID.TID 0000.0001) > diffK4T=0.E17,
(PID.TID 0000.0001) > diffKrS=0.E2,
(PID.TID 0000.0001) > diffKhS=0.E3,
(PID.TID 0000.0001) > diffK4S=0.E17,
(PID.TID 0000.0001) > buoyancyRelation='ATMOSPHERIC',
(PID.TID 0000.0001) > eosType='IDEALGAS',
(PID.TID 0000.0001) > gravity=9.81,
(PID.TID 0000.0001) > rhonil=1.0,
(PID.TID 0000.0001) > rhoConst=1.0,
(PID.TID 0000.0001) > rigidLid=.FALSE.,
(PID.TID 0000.0001) > implicitFreeSurface=.TRUE.,
(PID.TID 0000.0001) > staggerTimeStep=.TRUE.,
(PID.TID 0000.0001) > nonHydrostatic=.FALSE.,
(PID.TID 0000.0001) > readBinaryPrec=64,
(PID.TID 0000.0001) > writeBinaryPrec=64,
(PID.TID 0000.0001) > hFacMin=1.0,
(PID.TID 0000.0001) > zonal_filt_lat=45.0,
(PID.TID 0000.0001) > &
(PID.TID 0000.0001) >
(PID.TID 0000.0001) ># Elliptic solver parameters
(PID.TID 0000.0001) > &PARM02
(PID.TID 0000.0001) > cg2dMaxIters=200,
(PID.TID 0000.0001) >#cg2dTargetResidual=1.E-12,
(PID.TID 0000.0001) > cg2dTargetResWunit=1.E-17,
(PID.TID 0000.0001) > &
(PID.TID 0000.0001) >
(PID.TID 0000.0001) ># Time stepping parameters
(PID.TID 0000.0001) > &PARM03
(PID.TID 0000.0001) > niter0=25920,
(PID.TID 0000.0001) > nTimeSteps=10,
(PID.TID 0000.0001) >#endTime=31104000.,
(PID.TID 0000.0001) > deltaT=300.0,
(PID.TID 0000.0001) > abEps=0.1,
(PID.TID 0000.0001) > cAdjFreq=0.,
(PID.TID 0000.0001) > pChkptFreq=2592000.0,
(PID.TID 0000.0001) > chkptFreq=0.0,
(PID.TID 0000.0001) > dumpFreq=2592000.0,
(PID.TID 0000.0001) > taveFreq=2592000.0,
(PID.TID 0000.0001) > monitorFreq=1.0,
(PID.TID 0000.0001) > &
(PID.TID 0000.0001) >
(PID.TID 0000.0001) ># Gridding parameters
(PID.TID 0000.0001) > &PARM04
(PID.TID 0000.0001) > usingCartesianGrid=.FALSE.,
(PID.TID 0000.0001) > usingSphericalPolarGrid=.TRUE.,
(PID.TID 0000.0001) > delX=128*2.8125,
(PID.TID 0000.0001) > delY=64*2.8125,
(PID.TID 0000.0001) > delR=1.E4, 2.5E4, 3.E4, 2.E4, 1.5E4,
(PID.TID 0000.0001) > Ro_SeaLevel=1.E5,
(PID.TID 0000.0001) > groundAtK1=.TRUE.,
(PID.TID 0000.0001) > phiMin=-90.,
(PID.TID 0000.0001) > rSphere=6370.E3,
(PID.TID 0000.0001) > &
(PID.TID 0000.0001) >
(PID.TID 0000.0001) ># Input datasets
(PID.TID 0000.0001) > &PARM05
(PID.TID 0000.0001) > bathyFile='orography_fullcell.bin',
(PID.TID 0000.0001) > &
(PID.TID 0000.0001) 
(PID.TID 0000.0001) %MON XC_max                       =   3.5859375000000E+02
(PID.TID 0000.0001) %MON XC_min                       =   1.4062500000000E+00
(PID.TID 0000.0001) %MON XC_mean                      =   1.8000000000000E+02
(PID.TID 0000.0001) %MON XC_sd                        =   1.0391987692599E+02
(PID.TID 0000.0001) %MON XG_max                       =   3.5718750000000E+02
(PID.TID 0000.0001) %MON XG_min                       =   2.8125000000000E+00
(PID.TID 0000.0001) %MON XG_mean                      =   1.8000000000000E+02
(PID.TID 0000.0001) %MON XG_sd                        =   1.0310795313651E+02
(PID.TID 0000.0001) %MON DXC_max                      =   3.1259246843155E+05
(PID.TID 0000.0001) %MON DXC_min                      =   7.6737143816223E+03
(PID.TID 0000.0001) %MON DXC_mean                     =   1.9908248704234E+05
(PID.TID 0000.0001) %MON DXC_sd                       =   9.6190602240068E+04
(PID.TID 0000.0001) %MON DXF_max                      =   3.1259246843155E+05
(PID.TID 0000.0001) %MON DXF_min                      =   7.6737143816223E+03
(PID.TID 0000.0001) %MON DXF_mean                     =   1.9908248704234E+05
(PID.TID 0000.0001) %MON DXF_sd                       =   9.6190602240068E+04
(PID.TID 0000.0001) %MON DXG_max                      =   3.1268664380261E+05
(PID.TID 0000.0001) %MON DXG_min                      =   1.5342806404640E+04
(PID.TID 0000.0001) %MON DXG_mean                     =   2.0218161485138E+05
(PID.TID 0000.0001) %MON DXG_sd                       =   9.3728538420912E+04
(PID.TID 0000.0001) %MON DXV_max                      =   3.1268664380261E+05
(PID.TID 0000.0001) %MON DXV_min                      =   1.5342806404640E+04
(PID.TID 0000.0001) %MON DXV_mean                     =   2.0218161485138E+05
(PID.TID 0000.0001) %MON DXV_sd                       =   9.3728538420912E+04
(PID.TID 0000.0001) %MON YC_max                       =   8.8593750000000E+01
(PID.TID 0000.0001) %MON YC_min                       =  -8.8593750000000E+01
(PID.TID 0000.0001) %MON YC_mean                      =   0.0000000000000E+00
(PID.TID 0000.0001) %MON YC_sd                        =   5.1955180880375E+01
(PID.TID 0000.0001) %MON YG_max                       =   8.7187500000000E+01
(PID.TID 0000.0001) %MON YG_min                       =  -9.0000000000000E+01
(PID.TID 0000.0001) %MON YG_mean                      =  -1.4285714285714E+00
(PID.TID 0000.0001) %MON YG_sd                        =   5.2365595692639E+01
(PID.TID 0000.0001) %MON DYC_max                      =   3.1268664380261E+05
(PID.TID 0000.0001) %MON DYC_min                      =   3.1268664380261E+05
(PID.TID 0000.0001) %MON DYC_mean                     =   3.1268664380263E+05
(PID.TID 0000.0001) %MON DYC_sd                       =   2.4156179279089E-08
(PID.TID 0000.0001) %MON DYF_max                      =   3.1268664380261E+05
(PID.TID 0000.0001) %MON DYF_min                      =   3.1268664380261E+05
(PID.TID 0000.0001) %MON DYF_mean                     =   3.1268664380263E+05
(PID.TID 0000.0001) %MON DYF_sd                       =   2.4156179279089E-08
(PID.TID 0000.0001) %MON DYG_max                      =   3.1268664380261E+05
(PID.TID 0000.0001) %MON DYG_min                      =   3.1268664380261E+05
(PID.TID 0000.0001) %MON DYG_mean                     =   3.1268664380263E+05
(PID.TID 0000.0001) %MON DYG_sd                       =   2.4156179279089E-08
(PID.TID 0000.0001) %MON DYU_max                      =   3.1268664380261E+05
(PID.TID 0000.0001) %MON DYU_min                      =   3.1268664380261E+05
(PID.TID 0000.0001) %MON DYU_mean                     =   3.1268664380263E+05
(PID.TID 0000.0001) %MON DYU_sd                       =   2.4156179279089E-08
(PID.TID 0000.0001) %MON RA_max                       =   9.7733676797555E+10
(PID.TID 0000.0001) %MON RA_min                       =   2.3992270990190E+09
(PID.TID 0000.0001) %MON RA_mean                      =   6.2244185031957E+10
(PID.TID 0000.0001) %MON RA_sd                        =   3.0074496923945E+10
(PID.TID 0000.0001) %MON RAW_max                      =   9.7733676797555E+10
(PID.TID 0000.0001) %MON RAW_min                      =   2.3992270990190E+09
(PID.TID 0000.0001) %MON RAW_mean                     =   6.2244185031957E+10
(PID.TID 0000.0001) %MON RAW_sd                       =   3.0074496923945E+10
(PID.TID 0000.0001) %MON RAS_max                      =   9.7763121221868E+10
(PID.TID 0000.0001) %MON RAS_min                      =   4.7970089933466E+09
(PID.TID 0000.0001) %MON RAS_mean                     =   6.3213143616158E+10
(PID.TID 0000.0001) %MON RAS_sd                       =   2.9304719741649E+10
(PID.TID 0000.0001) %MON RAZ_max                      =   9.7763121221868E+10
(PID.TID 0000.0001) %MON RAZ_min                      =   4.7970089933466E+09
(PID.TID 0000.0001) %MON RAZ_mean                     =   6.3213143616158E+10
(PID.TID 0000.0001) %MON RAZ_sd                       =   2.9304719741649E+10
(PID.TID 0000.0001)  MDSREADFIELD: opening global file: orography_fullcell.bin
(PID.TID 0000.0001) // =======================================================
(PID.TID 0000.0001) // Field Model R_low (ini_masks_etc) at iteration          1
(PID.TID 0000.0001) // CMIN =          1.000000000000000E+32
(PID.TID 0000.0001) // CMAX =         -1.000000000000000E+32
(PID.TID 0000.0001) // CINT =          0.000000000000000E+00
(PID.TID 0000.0001) // SYMBOLS (CMIN->CMAX): -abcdefghijklmnopqrstuvwxyz+
(PID.TID 0000.0001) //                  0.0: .
(PID.TID 0000.0001) // RANGE I (Lo:Hi:Step):(  -4: 133:   1)
(PID.TID 0000.0001) // RANGE J (Lo:Hi:Step):(  69:  -4:  -1)
(PID.TID 0000.0001) // RANGE K (Lo:Hi:Step):(   1:   1:   1)
(PID.TID 0000.0001) // =======================================================
(PID.TID 0000.0001) K =   1
(PID.TID 0000.0001) //                I=5       I=15      I=25      I=35      I=45      I=55      I=65      I=75      I=85      I=95      I=105     I=115     I=125
(PID.TID 0000.0001) // |--J--|****01234|678901234|678901234|678901234|678901234|678901234|678901234|678901234|678901234|678901234|678901234|678901234|678901234|67890123
(PID.TID 0000.0001) //     69 ..........................................................................................................................................
(PID.TID 0000.0001) //     68 ..........................................................................................................................................
(PID.TID 0000.0001) //     67 ..........................................................................................................................................
(PID.TID 0000.0001) //     66 ..........................................................................................................................................
(PID.TID 0000.0001) //     65 ..........................................................................................................................................
(PID.TID 0000.0001) //     64 ..........................................................................................................................................
(PID.TID 0000.0001) //     63 ..........................................................................................................................................
(PID.TID 0000.0001) //     62 ..........................................................................................................................................
(PID.TID 0000.0001) //     61 ..........................................................................................................................................
(PID.TID 0000.0001) //     60 ..........................................................................................................................................
(PID.TID 0000.0001) //     59 ..........................................................................................................................................
(PID.TID 0000.0001) //     58 ..........................................................................................................................................
(PID.TID 0000.0001) //     57 ..........................................................................................................................................
(PID.TID 0000.0001) //     56 ..........................................................................................................................................
(PID.TID 0000.0001) //     55 ..........................................................................................................................................
(PID.TID 0000.0001) //     54 ..........................................................................................................................................
(PID.TID 0000.0001) //     53 ..........................................................................................................................................
(PID.TID 0000.0001) //     52 ..........................................................................................................................................
(PID.TID 0000.0001) //     51 ..........................................................................................................................................
(PID.TID 0000.0001) //     50 ..........................................................................................................................................
(PID.TID 0000.0001) //     49 ..........................................................................................................................................
(PID.TID 0000.0001) //     48 ..........................................................................................................................................
(PID.TID 0000.0001) //     47 ..........................................................................................................................................
(PID.TID 0000.0001) //     46 ..........................................................................................................................................
(PID.TID 0000.0001) //     45 ..........................................................................................................................................
(PID.TID 0000.0001) //     44 ..........................................................................................................................................
(PID.TID 0000.0001) //     43 ..........................................................................................................................................
(PID.TID 0000.0001) //     42 ..........................................................................................................................................
(PID.TID 0000.0001) //     41 ..........................................................................................................................................
(PID.TID 0000.0001) //     40 ..........................................................................................................................................
(PID.TID 0000.0001) //     39 ..........................................................................................................................................
(PID.TID 0000.0001) //     38 ..........................................................................................................................................
(PID.TID 0000.0001) //     37 ..........................................................................................................................................
(PID.TID 0000.0001) //     36 ..........................................................................................................................................
(PID.TID 0000.0001) //     35 ..........................................................................................................................................
(PID.TID 0000.0001) //     34 ..........................................................................................................................................
(PID.TID 0000.0001) //     33 ..........................................................................................................................................
(PID.TID 0000.0001) //     32 ..........................................................................................................................................
(PID.TID 0000.0001) //     31 ..........................................................................................................................................
(PID.TID 0000.0001) //     30 ..........................................................................................................................................
(PID.TID 0000.0001) //     29 ..........................................................................................................................................
(PID.TID 0000.0001) //     28 ..........................................................................................................................................
(PID.TID 0000.0001) //     27 ..........................................................................................................................................
(PID.TID 0000.0001) //     26 ..........................................................................................................................................
(PID.TID 0000.0001) //     25 ..........................................................................................................................................
(PID.TID 0000.0001) //     24 ..........................................................................................................................................
(PID.TID 0000.0001) //     23 ..........................................................................................................................................
(PID.TID 0000.0001) //     22 ..........................................................................................................................................
(PID.TID 0000.0001) //     21 ..........................................................................................................................................
(PID.TID 0000.0001) //     20 ..........................................................................................................................................
(PID.TID 0000.0001) //     19 ..........................................................................................................................................
(PID.TID 0000.0001) //     18 ..........................................................................................................................................
(PID.TID 0000.0001) //     17 ..........................................................................................................................................
(PID.TID 0000.0001) //     16 ..........................................................................................................................................
(PID.TID 0000.0001) //     15 ..........................................................................................................................................
(PID.TID 0000.0001) //     14 ..........................................................................................................................................
(PID.TID 0000.0001) //     13 ..........................................................................................................................................
(PID.TID 0000.0001) //     12 ..........................................................................................................................................
(PID.TID 0000.0001) //     11 ..........................................................................................................................................
(PID.TID 0000.0001) //     10 ..........................................................................................................................................
(PID.TID 0000.0001) //      9 ..........................................................................................................................................
(PID.TID 0000.0001) //      8 ..........................................................................................................................................
(PID.TID 0000.0001) //      7 ..........................................................................................................................................
(PID.TID 0000.0001) //      6 ..........................................................................................................................................
(PID.TID 0000.0001) //      5 ..........................................................................................................................................
(PID.TID 0000.0001) //      4 ..........................................................................................................................................
(PID.TID 0000.0001) //      3 ..........................................................................................................................................
(PID.TID 0000.0001) //      2 ..........................................................................................................................................
(PID.TID 0000.0001) //      1 ..........................................................................................................................................
(PID.TID 0000.0001) //      0 ..........................................................................................................................................
(PID.TID 0000.0001) //     -1 ..........................................................................................................................................
(PID.TID 0000.0001) //     -2 ..........................................................................................................................................
(PID.TID 0000.0001) //     -3 ..........................................................................................................................................
(PID.TID 0000.0001) //     -4 ..........................................................................................................................................
(PID.TID 0000.0001) // =======================================================
(PID.TID 0000.0001) // END OF FIELD                                          =
(PID.TID 0000.0001) // =======================================================
(PID.TID 0000.0001) 
(PID.TID 0000.0001) // =======================================================
(PID.TID 0000.0001) // Field Model Ro_surf (ini_masks_etc) at iteration          1
(PID.TID 0000.0001) // CMIN =          6.500000000000000E+04
(PID.TID 0000.0001) // CMAX =          1.000000000000000E+05
(PID.TID 0000.0001) // CINT =          1.296296296296296E+03
(PID.TID 0000.0001) // SYMBOLS (CMIN->CMAX): -abcdefghijklmnopqrstuvwxyz+
(PID.TID 0000.0001) //                  0.0: .
(PID.TID 0000.0001) // RANGE I (Lo:Hi:Step):(  -4: 133:   1)
(PID.TID 0000.0001) // RANGE J (Lo:Hi:Step):(  69:  -4:  -1)
(PID.TID 0000.0001) // RANGE K (Lo:Hi:Step):(   1:   1:   1)
(PID.TID 0000.0001) // =======================================================
(PID.TID 0000.0001) K =   1
(PID.TID 0000.0001) //                I=5       I=15      I=25      I=35      I=45      I=55      I=65      I=75      I=85      I=95      I=105     I=115     I=125
(PID.TID 0000.0001) // |--J--|****01234|678901234|678901234|678901234|678901234|678901234|678901234|678901234|678901234|678901234|678901234|678901234|678901234|67890123
(PID.TID 0000.0001) //     69 ..........................................................................................................................................
(PID.TID 0000.0001) //     68 ..........................................................................................................................................
(PID.TID 0000.0001) //     67 ..........................................................................................................................................
(PID.TID 0000.0001) //     66 ..........................................................................................................................................
(PID.TID 0000.0001) //     65 ..........................................................................................................................................
(PID.TID 0000.0001) //     64 ++++++++++++++++++++++++++++++++++++++++++++++++++++++++++++++++++++++++++++++++++++++++++++++++++++++++++++++++++++++++++++++++++++++++++
(PID.TID 0000.0001) //     63 ++++++++++++++++++++++++++++++++++++++++++++++++++++++++++++++++++++++++++++++++++++++++++++++++++++++++++++++++++++++++++++++++++++++++++
(PID.TID 0000.0001) //     62 +++++++++++++++++++++++++++++++++++++++++++++++++++++++++++++++++++++++++++++++++++++++++++++++++++++++++ss+++++++++++++s+++++++++++++++++
(PID.TID 0000.0001) //     61 +++++++++++++++++++++++++++++++++++++++++++++++++++++++++++++++++++++++++++++++++++++++++++++++++++++sssssss++ssssssssssssssss++++++++++++
(PID.TID 0000.0001) //     60 +++++++++++++++++++++++++++++++++++++++++++++++++++++++++++++++++++++++++++++++++++++++++++++++++++++++ss+++sssss---------sss+++++++++++++
(PID.TID 0000.0001) //     59 +++++++++++++++++++++++++++++++++++++++++++++++++++++++++++++++++++++++++++++++++++++++++++++++++++++++++++++++++ss--------sss++++++++++++
(PID.TID 0000.0001) //     58 ++++++++++++++++++++++++++++++++++++++++++++++++++++++++++++++++++++++++++++++++++++++++++++++++++++++++++++++++++ss------ss++++++++++++++
(PID.TID 0000.0001) //     57 +++++++++++ss++++++++++++++++++++++++ssss+++++++++ss+ss++++++++++++s++++++++ssssssss+++++++++++++++++++++++++++++++ss----ss+++++++++++++++
(PID.TID 0000.0001) //     56 ++++++++++ss++++++++++++++++++++++++++sssssss+++++ssssssss+++sssss++++++++++++ss++sssss++++++++++++++++++++++++++++s--ss++++++++++++++++++
(PID.TID 0000.0001) //     55 ++++++++sss+++++++++++++++++++++++++++ssss++++++++++ssssssssssss++s+++++++++++sssssssssss++++++++++++++++++++++++++s-s++++++++++++++++++ss
(PID.TID 0000.0001) //     54 +++++++ss+++++++++++++++++++++++++++++s++ssssss++s+++sssssss++++++++++++++++++s++sssssssss+++++s+++++++++++++++++++++++++++++++++++++++ss+
(PID.TID 0000.0001) //     53 ++++++++++++++++++++++++++++++++++++++++++sssssssssssss++++++++++++++++++++++++++++++ssssssss+ss++++++++++++++++++++++++++++++++++++++++++
(PID.TID 0000.0001) //     52 ++++++++++++++++++++++++++++++++++++sssssssssssssssss++++++++s+++++++++++++++++++++++++sssssssss+++++++++++ssss+++++++++++++++++++++++++++
(PID.TID 0000.0001) //     51 +++++++++++++++++++++++++++++++++++sssssssssssssss+sss++++++++++++++++++++++++++++++++++sssssssss++++++++++ssss+++++++++++++++++++++++++++
(PID.TID 0000.0001) //     50 +++++++++ssss++++++++++++++++sssssss-ss-sssssssss+++++s++++++++++++++++++++++++++++++++++sssssssss+++++++++++++++++++++++++++++++++++++++s
(PID.TID 0000.0001) //     49 ++++++sssss++ss+++++++++++++++sssssssss--ssssssss++++s+++++++++++++++++++++++++++++++++++sssssssss++++++++++++++++++++++++++++++++++++ssss
(PID.TID 0000.0001) //     48 +++++s+++++sss+++++sss+++++++ssss--sssssssssssss++ss+++++++++++++++++++++++++++++++++++++ssss-sssss++++++++++++++++++++++++++++++++++s++++
(PID.TID 0000.0001) //     47 ++ssss++++++s+++ssssss+++++++ss--sssssssssssssss+ss++++++++++++++++++++++++++++++++++++++sssss--sss+++++++++++++++++++++++++++++++ssss++++
(PID.TID 0000.0001) //     46 +++s+++++++++++sssssss+++s++ss---ss-------ssss++++++++++++++++++++++++++++++++++++++++++++ssss--ss++++++s++++++++++++++++++++++++++s++++++
(PID.TID 0000.0001) //     45 +++++sss++++++++++s++sssssss--------------sss+++++++++++++++++++++++++++++++++++++++++++++ssssssss+++++s+++++++++++++++++++++++++++++sss++
(PID.TID 0000.0001) //     44 ++sssss+++++++++++ss++s-ssssss+s----------sss++++++++++++++++++++++++++++++++++++++++++++++++sssss++++++++++++++++++++++++++++++++sssss+++
(PID.TID 0000.0001) //     43 ++ssss++ss+++++++ssss++sssssss+++s--------+ss++++++++++++++++++++++++++++++++++++++++++++++++ssss+++++++++++++++++++++++++++++++++ssss++ss
(PID.TID 0000.0001) //     42 +s++++sssss+++++++ssss+++ssss++++++sssss--sss+s+++++++++++++++++++++++++++++++++++++++++++++++sss++++++++++++++++++++++++++++++++s++++ssss
(PID.TID 0000.0001) //     41 ++++++sssssssss++++sss+++++++++ss+ss++sssss++++++++++++++++++++++++++++++++++++++++++++++++++++sss++++++++++++++++++++++++++++++++++++ssss
(PID.TID 0000.0001) //     40 ++++++sssssssss++s+sss++++++++++++++++ssss++++++++++++++++++++++++++++++++++++++++++++++++++++++ss++++++++++++++++++++++++++++++++++++ssss
(PID.TID 0000.0001) //     39 ++++++ssss++sss++s++ssss+++++++ss+++++++ss++++++++++++++++++++++++++++++++++++++++++++++++++++++sss+++++++++++++++++++++++++++++++++++ssss
(PID.TID 0000.0001) //     38 ++++++++s+++sssssss+sss+++++++++s+++++++++++++++++++++++++++++++++++++++++++++++++++++++++++++++++++ss++++++++++++++++++++++++++++++++++s+
(PID.TID 0000.0001) //     37 +++++++s++++ssssssss++++++++++++s+++++++++++++++++++++++++++++++++++++++++++++++++++++++++++++++++++++s++++++++++++++++++++++++++++++++s++
(PID.TID 0000.0001) //     36 +ss++++sss++sss++s-ssss+++++++++++++++++++++++++++++++++++++++++++++++++++++++++++++++++++++++++++++++++++++s++++++++++++++++++++ss++++sss
(PID.TID 0000.0001) //     35 ++++++++ssssssss+sssss++++++++++++++++++++++++++++++++++++++++++++++++++++++++++++++++++++++++++++++++++++ss+s++++++++++++++++++++++++++ss
(PID.TID 0000.0001) //     34 +++++++++sssssssssss+++++++++++++++++++s++++++s+++++++++++++++++++++++++++++++++++++++++++++++++++++++++++s++sss+++++++++++++++++++++++++s
(PID.TID 0000.0001) //     33 +++++++++ss+++sssss++++++++++++++++++++++++++ss++++++++++++++++++++++++++++++++++++++++++++++++++++++++++ss++++++++++++++++++++++++++++++s
(PID.TID 0000.0001) //     32 +++++++++ss++sss+ss+++++++++++++++++++++++++++++++++++++++++++++++++++++++++++++++++++++++++++++++++++++ss+++++++++++++++++++++++++++++++s
(PID.TID 0000.0001) //     31 ++++++++++sssssssss++++++++++++++++++++++++++++++++++sss++++++++++++++++++++++++++++++++++++++++++++++++ss++++++++++++++++++++++++++++++++
(PID.TID 0000.0001) //     30 ++++++++++sssssssss+++++++++++++++++++++++++++++++++++++s++++++++++++++++++++++++++++++++++++++++++++++++s++++++++++++s+++++++++++++++++++
(PID.TID 0000.0001) //     29 ++++++++++sssssssss++++++++++++++++++++++++++++++++++++++++++++++++++++++++++++++++++++++++++++++++++++++-s+++++++++sss+++++++++++++++++++
(PID.TID 0000.0001) //     28 ++++++++++sssssssss++++++++++++++++++++++++++++++++++++++++++++++++++++++++++++++++++++++++++++++++++++++s-s++++++++sss+++++++++++++++++++
(PID.TID 0000.0001) //     27 +++++++++ssssssssss+++s+++++++++++++++++++++++++++++++++++++++++++++++++++++++++++++++++++++++++++++++++++s--s+++s+ssss++++++++++++++++++s
(PID.TID 0000.0001) //     26 +++++++++ssssssss++++s++++++++++++++++++++++++++++++++++s+++++++++++++++++++++++++++++++++++++++++++++++++++--s+++ssss+++++++++++++++++++s
(PID.TID 0000.0001) //     25 ++++++++++sssssss++++s+++++++++++++++++++++++++++++ss+++++++++++++++++++++++++++++++++++++++++++++++++++++++--s++++sss++++++++++++++++++++
(PID.TID 0000.0001) //     24 ++++++++++ssssss+++++s++++++++++++++++++++++++sss+sss+++++++++++++++++++++++++++++++++++++++++++++++++++++++--++++ss++++++++++++++++++++++
(PID.TID 0000.0001) //     23 ++++++++++ssssss+++++++++++++++++++++++++++++++sssss++++++++++++++++++++++++++++++++++++++++++++++++++++++++--++++ss++++++++++++++++++++++
(PID.TID 0000.0001) //     22 +++++++++++sssss+++++++++++++++++++++++++++++++ss+++++++++s+++++++++++++++++++++++++++++++++++++++++++++++++-s++++++++++++++++++++++++++++
(PID.TID 0000.0001) //     21 ++++++++++++sss+++++++++++++++++++++++++++++++++++++++++++s++++++++++++++++++++++++++++++++++++++++++++++++sss++++++++++++++++++++++++++++
(PID.TID 0000.0001) //     20 +++++++++++++++++++++++++++++++++++++++++++++++++++++++++s+++++++++++++++++++++++++++++++++++++++++++++++++ss+++++++++++++++++++++++++++++
(PID.TID 0000.0001) //     19 +++++++++++++++++++++++++++++++++++++++++++++++++++++++++++++++++++++++++++++++++++++++++++++++++++++++++++ss+++++++++++++++++++++++++++++
(PID.TID 0000.0001) //     18 +++++++++++++++++++++++++++++++++++++++++++++++++++++++++++++++++++++++++++++++++++++++++++++++++++++++++++ss+++++++++++++++++++++++++++++
(PID.TID 0000.0001) //     17 +++++++++++++++++++++++++++++++++++++++++++++++++++++++++++++++++++++++++++++++++++++++++++++++++++++++++++ss+++++++++++++++++++++++++++++
(PID.TID 0000.0001) //     16 +++++++++++++++++++++++++++++++++++++++++++++++++++++++++++++++++++++++++++++++++++++++++++++++++++++++++++ss+++++++++++++++++++++++++++++
(PID.TID 0000.0001) //     15 ++++++++++++++++++++++++++++++++++++++++++++++++++++++++++++++++++++++++++++++++++++++++++++++++++++++++++ss++++++++++++++++++++++++++++++
(PID.TID 0000.0001) //     14 ++++++++++++++++++++++++++++++++++++++++++++++++++++++++++++++++++++++++++++++++++++++++++++++++++++++++++++++++++++++++++++++++++++++++++
(PID.TID 0000.0001) //     13 ++++++++++++++++++++++++++++++++++++++++++++++++++++++++++++++++++++++++++++++++++++++++++++++++++++++++++++++++++++++++++++++++++++++++++
(PID.TID 0000.0001) //     12 ++++++++++++++++++++++++++++++++++++++++++++++++++++++++++++++++++++++++++++++++++++++++++++++++++++++++++++++++++++++++++++++++++++++++++
(PID.TID 0000.0001) //     11 ++++++++++++++++++++++++++++++++++++++++++++++++++++++++++++++++++++++++++++++++++++++++++++++++++++++++++++++++++++++++++++++++++++++++++
(PID.TID 0000.0001) //     10 ++++++++++++++++++++++++++++++++++++++++++++++++++++++++++++++++++++++++++++++++++++++++++++++++++++++++++++++++++++++++++++++++++++++++++
(PID.TID 0000.0001) //      9 +++++++++++++++++++++++++++++++++++++++++s++++++++++++++++++++++++++++++++++++++++++++++++++++++++++++++++++++++++++++++++++++++++++++++++
(PID.TID 0000.0001) //      8 ++++++++++++++++++++ssss-ssss++++ssss-------ssssssss---sssss+++++++++++++++++++++++++++++++++++++++++++++++++s++++++++++++++++++++++++++++
(PID.TID 0000.0001) //      7 ++sssssssssssssssss--------sssss--------------------------sssssss+++++++++++++++++++++++++++++++++++++++++++sss+++++++++++++++++++ssssssss
(PID.TID 0000.0001) //      6 s-------------------------ssss------------------------------ssss++++++++++++++++++++++++++++++++++sssssssssssss++++++++++++++ssss---------
(PID.TID 0000.0001) //      5 -------------------------------------------------------------ss++++++++++++++++++sssssssssssssssssssssss++++++++++++++++++ssss------------
(PID.TID 0000.0001) //      4 ----------------------------------------------------------ssss++++++++++++++++++++sssssssssssssss---sssss+++++++++++++++++ssss------------
(PID.TID 0000.0001) //      3 ------------------------------------------------------------ssssss++++++++++++++++ssssssssssssss----sssssssss+++sssssssssssss-------------
(PID.TID 0000.0001) //      2 -----------------------------------------------------------------------sssssssssssssssssssssssssssssssssssssssssssssssss------------------
(PID.TID 0000.0001) //      1 ------------------------------------------------------------------------------------------------------------------------------------------
(PID.TID 0000.0001) //      0 ..........................................................................................................................................
(PID.TID 0000.0001) //     -1 ..........................................................................................................................................
(PID.TID 0000.0001) //     -2 ..........................................................................................................................................
(PID.TID 0000.0001) //     -3 ..........................................................................................................................................
(PID.TID 0000.0001) //     -4 ..........................................................................................................................................
(PID.TID 0000.0001) // =======================================================
(PID.TID 0000.0001) // END OF FIELD                                          =
(PID.TID 0000.0001) // =======================================================
(PID.TID 0000.0001) 
(PID.TID 0000.0001) // =======================================================
(PID.TID 0000.0001) // Field hFacC at iteration          1
(PID.TID 0000.0001) // CMIN =          1.000000000000000E+00
(PID.TID 0000.0001) // CMAX =          1.000000000000000E+00
(PID.TID 0000.0001) // CINT =          0.000000000000000E+00
(PID.TID 0000.0001) // SYMBOLS (CMIN->CMAX): -abcdefghijklmnopqrstuvwxyz+
(PID.TID 0000.0001) //                  0.0: .
(PID.TID 0000.0001) // RANGE I (Lo:Hi:Step):(  -4: 133:   1)
(PID.TID 0000.0001) // RANGE J (Lo:Hi:Step):(  69:  -4:  -1)
(PID.TID 0000.0001) // RANGE K (Lo:Hi:Step):(   1:   1:   1)
(PID.TID 0000.0001) // =======================================================
(PID.TID 0000.0001) K =   1
(PID.TID 0000.0001) //                I=5       I=15      I=25      I=35      I=45      I=55      I=65      I=75      I=85      I=95      I=105     I=115     I=125
(PID.TID 0000.0001) // |--J--|****01234|678901234|678901234|678901234|678901234|678901234|678901234|678901234|678901234|678901234|678901234|678901234|678901234|67890123
(PID.TID 0000.0001) //     69 ..........................................................................................................................................
(PID.TID 0000.0001) //     68 ..........................................................................................................................................
(PID.TID 0000.0001) //     67 ..........................................................................................................................................
(PID.TID 0000.0001) //     66 ..........................................................................................................................................
(PID.TID 0000.0001) //     65 ..........................................................................................................................................
(PID.TID 0000.0001) //     64 ------------------------------------------------------------------------------------------------------------------------------------------
(PID.TID 0000.0001) //     63 ------------------------------------------------------------------------------------------------------------------------------------------
(PID.TID 0000.0001) //     62 ---------------------------------------------------------------------------------------------------------..-------------.-----------------
(PID.TID 0000.0001) //     61 -----------------------------------------------------------------------------------------------------.......--................------------
(PID.TID 0000.0001) //     60 -------------------------------------------------------------------------------------------------------..---.................-------------
(PID.TID 0000.0001) //     59 -----------------------------------------------------------------------------------------------------------------.............------------
(PID.TID 0000.0001) //     58 ------------------------------------------------------------------------------------------------------------------..........--------------
(PID.TID 0000.0001) //     57 -----------..------------------------....---------..-..------------.--------........-------------------------------........---------------
(PID.TID 0000.0001) //     56 ----------..--------------------------.......-----........---.....------------..--.....----------------------------.....------------------
(PID.TID 0000.0001) //     55 --------...---------------------------....----------............--.-----------...........--------------------------...------------------..
(PID.TID 0000.0001) //     54 -------..-----------------------------.--......--.---.......------------------.--.........-----.---------------------------------------..-
(PID.TID 0000.0001) //     53 ------------------------------------------.............------------------------------........-..------------------------------------------
(PID.TID 0000.0001) //     52 ------------------------------------.................--------.-------------------------.........-----------....---------------------------
(PID.TID 0000.0001) //     51 -----------------------------------...............-...----------------------------------.........----------....---------------------------
(PID.TID 0000.0001) //     50 ---------....----------------....................-----.----------------------------------.........---------------------------------------.
(PID.TID 0000.0001) //     49 ------.....--..---------------...................----.-----------------------------------.........------------------------------------....
(PID.TID 0000.0001) //     48 -----.-----...-----...-------...................--..-------------------------------------..........----------------------------------.----
(PID.TID 0000.0001) //     47 --....------.---......-------...................-..--------------------------------------..........-------------------------------....----
(PID.TID 0000.0001) //     46 ---.-----------.......---.--..................--------------------------------------------........------.--------------------------.------
(PID.TID 0000.0001) //     45 -----...----------.--........................---------------------------------------------........-----.-----------------------------...--
(PID.TID 0000.0001) //     44 --.....-----------..--........-..............------------------------------------------------.....--------------------------------.....---
(PID.TID 0000.0001) //     43 --....--..-------....--.......---.........-..------------------------------------------------....---------------------------------....--..
(PID.TID 0000.0001) //     42 -.----.....-------....---....------..........-.-----------------------------------------------...--------------------------------.----....
(PID.TID 0000.0001) //     41 ------.........----...---------..-..--.....----------------------------------------------------...------------------------------------....
(PID.TID 0000.0001) //     40 ------.........--.-...----------------....------------------------------------------------------..------------------------------------....
(PID.TID 0000.0001) //     39 ------....--...--.--....-------..-------..------------------------------------------------------...-----------------------------------....
(PID.TID 0000.0001) //     38 --------.---.......-...---------.-------------------------------------------------------------------..----------------------------------.-
(PID.TID 0000.0001) //     37 -------.----........------------.---------------------------------------------------------------------.--------------------------------.--
(PID.TID 0000.0001) //     36 -..----...--...--......-------------------------------------------------------------------------------------.--------------------..----...
(PID.TID 0000.0001) //     35 --------........-.....------------------------------------------------------------------------------------..-.--------------------------..
(PID.TID 0000.0001) //     34 ---------...........-------------------.------.-----------------------------------------------------------.--...-------------------------.
(PID.TID 0000.0001) //     33 ---------..---.....--------------------------..----------------------------------------------------------..------------------------------.
(PID.TID 0000.0001) //     32 ---------..--...-..-------------------------------------------------------------------------------------..-------------------------------.
(PID.TID 0000.0001) //     31 ----------.........----------------------------------...------------------------------------------------..--------------------------------
(PID.TID 0000.0001) //     30 ----------.........-------------------------------------.------------------------------------------------.------------.-------------------
(PID.TID 0000.0001) //     29 ----------.........--------------------------------------------------------------------------------------..---------...-------------------
(PID.TID 0000.0001) //     28 ----------.........--------------------------------------------------------------------------------------...--------...-------------------
(PID.TID 0000.0001) //     27 ---------..........---.-----------------------------------------------------------------------------------....---.-....------------------.
(PID.TID 0000.0001) //     26 ---------........----.----------------------------------.---------------------------------------------------...---....-------------------.
(PID.TID 0000.0001) //     25 ----------.......----.-----------------------------..-------------------------------------------------------...----...--------------------
(PID.TID 0000.0001) //     24 ----------......-----.------------------------...-...-------------------------------------------------------..----..----------------------
(PID.TID 0000.0001) //     23 ----------......-------------------------------.....--------------------------------------------------------..----..----------------------
(PID.TID 0000.0001) //     22 -----------.....-------------------------------..---------.-------------------------------------------------..----------------------------
(PID.TID 0000.0001) //     21 ------------...-------------------------------------------.------------------------------------------------...----------------------------
(PID.TID 0000.0001) //     20 ---------------------------------------------------------.-------------------------------------------------..-----------------------------
(PID.TID 0000.0001) //     19 -----------------------------------------------------------------------------------------------------------..-----------------------------
(PID.TID 0000.0001) //     18 -----------------------------------------------------------------------------------------------------------..-----------------------------
(PID.TID 0000.0001) //     17 -----------------------------------------------------------------------------------------------------------..-----------------------------
(PID.TID 0000.0001) //     16 -----------------------------------------------------------------------------------------------------------..-----------------------------
(PID.TID 0000.0001) //     15 ----------------------------------------------------------------------------------------------------------..------------------------------
(PID.TID 0000.0001) //     14 ------------------------------------------------------------------------------------------------------------------------------------------
(PID.TID 0000.0001) //     13 ------------------------------------------------------------------------------------------------------------------------------------------
(PID.TID 0000.0001) //     12 ------------------------------------------------------------------------------------------------------------------------------------------
(PID.TID 0000.0001) //     11 ------------------------------------------------------------------------------------------------------------------------------------------
(PID.TID 0000.0001) //     10 ------------------------------------------------------------------------------------------------------------------------------------------
(PID.TID 0000.0001) //      9 -----------------------------------------.------------------------------------------------------------------------------------------------
(PID.TID 0000.0001) //      8 --------------------.........----...........................-------------------------------------------------.----------------------------
(PID.TID 0000.0001) //      7 --...............................................................-------------------------------------------...-------------------........
(PID.TID 0000.0001) //      6 ................................................................----------------------------------.............--------------.............
(PID.TID 0000.0001) //      5 ...............................................................------------------.......................------------------................
(PID.TID 0000.0001) //      4 ..............................................................--------------------.......................-----------------................
(PID.TID 0000.0001) //      3 ..................................................................----------------...........................---..........................
(PID.TID 0000.0001) //      2 ..........................................................................................................................................
(PID.TID 0000.0001) //      1 ..........................................................................................................................................
(PID.TID 0000.0001) //      0 ..........................................................................................................................................
(PID.TID 0000.0001) //     -1 ..........................................................................................................................................
(PID.TID 0000.0001) //     -2 ..........................................................................................................................................
(PID.TID 0000.0001) //     -3 ..........................................................................................................................................
(PID.TID 0000.0001) //     -4 ..........................................................................................................................................
(PID.TID 0000.0001) // =======================================================
(PID.TID 0000.0001) // END OF FIELD                                          =
(PID.TID 0000.0001) // =======================================================
(PID.TID 0000.0001) 
(PID.TID 0000.0001) // =======================================================
(PID.TID 0000.0001) // Field hFacW at iteration          1
(PID.TID 0000.0001) // CMIN =          1.000000000000000E+00
(PID.TID 0000.0001) // CMAX =          1.000000000000000E+00
(PID.TID 0000.0001) // CINT =          0.000000000000000E+00
(PID.TID 0000.0001) // SYMBOLS (CMIN->CMAX): -abcdefghijklmnopqrstuvwxyz+
(PID.TID 0000.0001) //                  0.0: .
(PID.TID 0000.0001) // RANGE I (Lo:Hi:Step):(  -4: 133:   1)
(PID.TID 0000.0001) // RANGE J (Lo:Hi:Step):(  69:  -4:  -1)
(PID.TID 0000.0001) // RANGE K (Lo:Hi:Step):(   1:   1:   1)
(PID.TID 0000.0001) // =======================================================
(PID.TID 0000.0001) K =   1
(PID.TID 0000.0001) //                I=5       I=15      I=25      I=35      I=45      I=55      I=65      I=75      I=85      I=95      I=105     I=115     I=125
(PID.TID 0000.0001) // |--J--|****01234|678901234|678901234|678901234|678901234|678901234|678901234|678901234|678901234|678901234|678901234|678901234|678901234|67890123
(PID.TID 0000.0001) //     69 ................................................................-----------------........................-----------------................
(PID.TID 0000.0001) //     68 ...............................................................-------------------........................----------------................
(PID.TID 0000.0001) //     67 ...................................................................---------------............................--..........................
(PID.TID 0000.0001) //     66 ..........................................................................................................................................
(PID.TID 0000.0001) //     65 ..........................................................................................................................................
(PID.TID 0000.0001) //     64 ------------------------------------------------------------------------------------------------------------------------------------------
(PID.TID 0000.0001) //     63 ------------------------------------------------------------------------------------------------------------------------------------------
(PID.TID 0000.0001) //     62 ---------------------------------------------------------------------------------------------------------...------------..----------------
(PID.TID 0000.0001) //     61 -----------------------------------------------------------------------------------------------------........-.................-----------
(PID.TID 0000.0001) //     60 -------------------------------------------------------------------------------------------------------...--..................------------
(PID.TID 0000.0001) //     59 -----------------------------------------------------------------------------------------------------------------..............-----------
(PID.TID 0000.0001) //     58 ------------------------------------------------------------------------------------------------------------------...........-------------
(PID.TID 0000.0001) //     57 -----------...-----------------------.....--------......-----------..-------.........------------------------------.........--------------
(PID.TID 0000.0001) //     56 ----------...-------------------------........----.........--......-----------...-......---------------------------......-----------------
(PID.TID 0000.0001) //     55 --------....--------------------------.....---------.............-..----------............-------------------------....-----------------..
(PID.TID 0000.0001) //     54 -------...----------------------------..-.......-..--........-----------------..-..........----..--------------------------------------...
(PID.TID 0000.0001) //     53 ------------------------------------------..............-----------------------------............-----------------------------------------
(PID.TID 0000.0001) //     52 ------------------------------------..................-------..------------------------..........----------.....--------------------------
(PID.TID 0000.0001) //     51 -----------------------------------....................---------------------------------..........---------.....--------------------------
(PID.TID 0000.0001) //     50 ---------.....---------------.....................----..---------------------------------..........--------------------------------------.
(PID.TID 0000.0001) //     49 ------......-...--------------....................---..----------------------------------..........-----------------------------------....
(PID.TID 0000.0001) //     48 -----..----....----....------....................-...------------------------------------...........---------------------------------..---
(PID.TID 0000.0001) //     47 --.....-----..--.......------.......................-------------------------------------...........------------------------------.....---
(PID.TID 0000.0001) //     46 ---..----------........--..-...................-------------------------------------------.........-----..-------------------------..-----
(PID.TID 0000.0001) //     45 -----....---------..-.........................--------------------------------------------.........----..----------------------------....-
(PID.TID 0000.0001) //     44 --......----------...-........................-----------------------------------------------......-------------------------------......--
(PID.TID 0000.0001) //     43 --.....-...------.....-........--.............-----------------------------------------------.....--------------------------------.....-..
(PID.TID 0000.0001) //     42 -..---......------.....--.....-----.............----------------------------------------------....-------------------------------..---....
(PID.TID 0000.0001) //     41 ------..........---....--------......-......---------------------------------------------------....-----------------------------------....
(PID.TID 0000.0001) //     40 ------..........-......---------------.....-----------------------------------------------------...-----------------------------------....
(PID.TID 0000.0001) //     39 ------.....-....-..-.....------...------...-----------------------------------------------------....----------------------------------....
(PID.TID 0000.0001) //     38 --------..--............--------..------------------------------------------------------------------...---------------------------------..
(PID.TID 0000.0001) //     37 -------..---.........-----------..--------------------------------------------------------------------..-------------------------------..-
(PID.TID 0000.0001) //     36 -...---....-....-.......------------------------------------------------------------------------------------..-------------------...---...
(PID.TID 0000.0001) //     35 --------...............-----------------------------------------------------------------------------------.....-------------------------..
(PID.TID 0000.0001) //     34 ---------............------------------..-----..----------------------------------------------------------..-....------------------------.
(PID.TID 0000.0001) //     33 ---------...--......-------------------------...---------------------------------------------------------...-----------------------------.
(PID.TID 0000.0001) //     32 ---------...-.......------------------------------------------------------------------------------------...------------------------------.
(PID.TID 0000.0001) //     31 ----------..........---------------------------------....-----------------------------------------------...-------------------------------
(PID.TID 0000.0001) //     30 ----------..........------------------------------------..-----------------------------------------------..-----------..------------------
(PID.TID 0000.0001) //     29 ----------..........-------------------------------------------------------------------------------------...--------....------------------
(PID.TID 0000.0001) //     28 ----------..........-------------------------------------------------------------------------------------....-------....------------------
(PID.TID 0000.0001) //     27 ---------...........--..----------------------------------------------------------------------------------.....--.......-----------------.
(PID.TID 0000.0001) //     26 ---------.........---..---------------------------------..--------------------------------------------------....--.....------------------.
(PID.TID 0000.0001) //     25 ----------........---..----------------------------...------------------------------------------------------....---....-------------------
(PID.TID 0000.0001) //     24 ----------.......----..-----------------------........------------------------------------------------------...---...---------------------
(PID.TID 0000.0001) //     23 ----------.......------------------------------......-------------------------------------------------------...---...---------------------
(PID.TID 0000.0001) //     22 -----------......------------------------------...--------..------------------------------------------------...---------------------------
(PID.TID 0000.0001) //     21 ------------....------------------------------------------..-----------------------------------------------....---------------------------
(PID.TID 0000.0001) //     20 ---------------------------------------------------------..------------------------------------------------...----------------------------
(PID.TID 0000.0001) //     19 -----------------------------------------------------------------------------------------------------------...----------------------------
(PID.TID 0000.0001) //     18 -----------------------------------------------------------------------------------------------------------...----------------------------
(PID.TID 0000.0001) //     17 -----------------------------------------------------------------------------------------------------------...----------------------------
(PID.TID 0000.0001) //     16 -----------------------------------------------------------------------------------------------------------...----------------------------
(PID.TID 0000.0001) //     15 ----------------------------------------------------------------------------------------------------------...-----------------------------
(PID.TID 0000.0001) //     14 ------------------------------------------------------------------------------------------------------------------------------------------
(PID.TID 0000.0001) //     13 ------------------------------------------------------------------------------------------------------------------------------------------
(PID.TID 0000.0001) //     12 ------------------------------------------------------------------------------------------------------------------------------------------
(PID.TID 0000.0001) //     11 ------------------------------------------------------------------------------------------------------------------------------------------
(PID.TID 0000.0001) //     10 ------------------------------------------------------------------------------------------------------------------------------------------
(PID.TID 0000.0001) //      9 -----------------------------------------..-----------------------------------------------------------------------------------------------
(PID.TID 0000.0001) //      8 --------------------..........---............................------------------------------------------------..---------------------------
(PID.TID 0000.0001) //      7 --................................................................------------------------------------------....------------------........
(PID.TID 0000.0001) //      6 .................................................................---------------------------------..............-------------.............
(PID.TID 0000.0001) //      5 ................................................................-----------------........................-----------------................
(PID.TID 0000.0001) //      4 ...............................................................-------------------........................----------------................
(PID.TID 0000.0001) //      3 ...................................................................---------------............................--..........................
(PID.TID 0000.0001) //      2 ..........................................................................................................................................
(PID.TID 0000.0001) //      1 ..........................................................................................................................................
(PID.TID 0000.0001) //      0 ------------------------------------------------------------------------------------------------------------------------------------------
(PID.TID 0000.0001) //     -1 ------------------------------------------------------------------------------------------------------------------------------------------
(PID.TID 0000.0001) //     -2 ---------------------------------------------------------------------------------------------------------...------------..----------------
(PID.TID 0000.0001) //     -3 -----------------------------------------------------------------------------------------------------........-.................-----------
(PID.TID 0000.0001) //     -4 -------------------------------------------------------------------------------------------------------...--..................------------
(PID.TID 0000.0001) // =======================================================
(PID.TID 0000.0001) // END OF FIELD                                          =
(PID.TID 0000.0001) // =======================================================
(PID.TID 0000.0001) 
(PID.TID 0000.0001) // =======================================================
(PID.TID 0000.0001) // Field hFacS at iteration          1
(PID.TID 0000.0001) // CMIN =          1.000000000000000E+00
(PID.TID 0000.0001) // CMAX =          1.000000000000000E+00
(PID.TID 0000.0001) // CINT =          0.000000000000000E+00
(PID.TID 0000.0001) // SYMBOLS (CMIN->CMAX): -abcdefghijklmnopqrstuvwxyz+
(PID.TID 0000.0001) //                  0.0: .
(PID.TID 0000.0001) // RANGE I (Lo:Hi:Step):(  -4: 133:   1)
(PID.TID 0000.0001) // RANGE J (Lo:Hi:Step):(  69:  -4:  -1)
(PID.TID 0000.0001) // RANGE K (Lo:Hi:Step):(   1:   1:   1)
(PID.TID 0000.0001) // =======================================================
(PID.TID 0000.0001) K =   1
(PID.TID 0000.0001) //                I=5       I=15      I=25      I=35      I=45      I=55      I=65      I=75      I=85      I=95      I=105     I=115     I=125
(PID.TID 0000.0001) // |--J--|****01234|678901234|678901234|678901234|678901234|678901234|678901234|678901234|678901234|678901234|678901234|678901234|678901234|67890123
(PID.TID 0000.0001) //     69 ..........................................................................................................................................
(PID.TID 0000.0001) //     68 ..........................................................................................................................................
(PID.TID 0000.0001) //     67 ..........................................................................................................................................
(PID.TID 0000.0001) //     66 ..........................................................................................................................................
(PID.TID 0000.0001) //     65 ..........................................................................................................................................
(PID.TID 0000.0001) //     64 ------------------------------------------------------------------------------------------------------------------------------------------
(PID.TID 0000.0001) //     63 ---------------------------------------------------------------------------------------------------------..-------------.-----------------
(PID.TID 0000.0001) //     62 -----------------------------------------------------------------------------------------------------.......--................------------
(PID.TID 0000.0001) //     61 -----------------------------------------------------------------------------------------------------.........................------------
(PID.TID 0000.0001) //     60 -------------------------------------------------------------------------------------------------------..---..................------------
(PID.TID 0000.0001) //     59 -----------------------------------------------------------------------------------------------------------------.............------------
(PID.TID 0000.0001) //     58 -----------..------------------------....---------..-..------------.--------........------------------------------..........--------------
(PID.TID 0000.0001) //     57 ----------...------------------------........-----........---.....-.--------...........----------------------------........---------------
(PID.TID 0000.0001) //     56 --------....--------------------------.......-----.................-----------...........--------------------------.....----------------..
(PID.TID 0000.0001) //     55 -------....---------------------------.........--.--............--.-----------............-----.-------------------...-----------------...
(PID.TID 0000.0001) //     54 -------..-----------------------------.--...................------------------.--............-..---------------------------------------..-
(PID.TID 0000.0001) //     53 ------------------------------------...................------.-----------------------...........-----------....---------------------------
(PID.TID 0000.0001) //     52 -----------------------------------...................-------.-------------------------..........----------....---------------------------
(PID.TID 0000.0001) //     51 ---------....----------------.....................-....---------------------------------..........---------....--------------------------.
(PID.TID 0000.0001) //     50 ------.........--------------....................----..----------------------------------.........------------------------------------....
(PID.TID 0000.0001) //     49 -----..........----...-------....................-..-.-----------------------------------..........----------------------------------.....
(PID.TID 0000.0001) //     48 --....-----...--......-------...................-...-------------------------------------..........-------------------------------....----
(PID.TID 0000.0001) //     47 --....------.--.......---.--....................-..--------------------------------------..........-----.-------------------------....----
(PID.TID 0000.0001) //     46 ---.-...-------...............................--------------------------------------------........-----..--------------------------.-...--
(PID.TID 0000.0001) //     45 --......----------..-........................---------------------------------------------........-----.--------------------------......--
(PID.TID 0000.0001) //     44 --.....-..-------....-........-..............------------------------------------------------.....--------------------------------.....-..
(PID.TID 0000.0001) //     43 -..........------.....-.......---............-.----------------------------------------------....--------------------------------.........
(PID.TID 0000.0001) //     42 -.----.........---....---....--..-...........-.-----------------------------------------------....-------------------------------.----....
(PID.TID 0000.0001) //     41 ------.........--.-...---------..-..--.....----------------------------------------------------...------------------------------------....
(PID.TID 0000.0001) //     40 ------.........--.-.....-------..-----....------------------------------------------------------...-----------------------------------....
(PID.TID 0000.0001) //     39 ------....--.......-....-------..-------..------------------------------------------------------...-..--------------------------------....
(PID.TID 0000.0001) //     38 -------..---...........---------.-------------------------------------------------------------------...--------------------------------..-
(PID.TID 0000.0001) //     37 -..----...--...........---------.---------------------------------------------------------------------.-----.--------------------..----...
(PID.TID 0000.0001) //     36 -..----.........-......-----------------------------------------------------------------------------------....-------------------..----...
(PID.TID 0000.0001) //     35 --------..............-----------------.------.-----------------------------------------------------------..-...------------------------..
(PID.TID 0000.0001) //     34 ---------...........-------------------.-----..----------------------------------------------------------..--...-------------------------.
(PID.TID 0000.0001) //     33 ---------..--......--------------------------..---------------------------------------------------------...------------------------------.
(PID.TID 0000.0001) //     32 ---------..........----------------------------------...------------------------------------------------..-------------------------------.
(PID.TID 0000.0001) //     31 ----------.........----------------------------------....-----------------------------------------------..------------.-------------------
(PID.TID 0000.0001) //     30 ----------.........-------------------------------------.------------------------------------------------..---------...-------------------
(PID.TID 0000.0001) //     29 ----------.........--------------------------------------------------------------------------------------...--------...-------------------
(PID.TID 0000.0001) //     28 ---------..........---.----------------------------------------------------------------------------------.....---.-....------------------.
(PID.TID 0000.0001) //     27 ---------..........--..---------------------------------.-------------------------------------------------.....--......------------------.
(PID.TID 0000.0001) //     26 ---------........----.-----------------------------..---.---------------------------------------------------...---....-------------------.
(PID.TID 0000.0001) //     25 ----------.......----.------------------------...-...-------------------------------------------------------...---....--------------------
(PID.TID 0000.0001) //     24 ----------......-----.------------------------.......-------------------------------------------------------..----..----------------------
(PID.TID 0000.0001) //     23 ----------......-------------------------------.....------.-------------------------------------------------..----..----------------------
(PID.TID 0000.0001) //     22 -----------.....-------------------------------..---------.------------------------------------------------...----------------------------
(PID.TID 0000.0001) //     21 ------------...------------------------------------------..------------------------------------------------...----------------------------
(PID.TID 0000.0001) //     20 ---------------------------------------------------------.-------------------------------------------------..-----------------------------
(PID.TID 0000.0001) //     19 -----------------------------------------------------------------------------------------------------------..-----------------------------
(PID.TID 0000.0001) //     18 -----------------------------------------------------------------------------------------------------------..-----------------------------
(PID.TID 0000.0001) //     17 -----------------------------------------------------------------------------------------------------------..-----------------------------
(PID.TID 0000.0001) //     16 ----------------------------------------------------------------------------------------------------------...-----------------------------
(PID.TID 0000.0001) //     15 ----------------------------------------------------------------------------------------------------------..------------------------------
(PID.TID 0000.0001) //     14 ------------------------------------------------------------------------------------------------------------------------------------------
(PID.TID 0000.0001) //     13 ------------------------------------------------------------------------------------------------------------------------------------------
(PID.TID 0000.0001) //     12 ------------------------------------------------------------------------------------------------------------------------------------------
(PID.TID 0000.0001) //     11 ------------------------------------------------------------------------------------------------------------------------------------------
(PID.TID 0000.0001) //     10 -----------------------------------------.------------------------------------------------------------------------------------------------
(PID.TID 0000.0001) //      9 --------------------.........----...........................-------------------------------------------------.----------------------------
(PID.TID 0000.0001) //      8 --...............................................................-------------------------------------------...-------------------........
(PID.TID 0000.0001) //      7 .................................................................---------------------------------.............--------------.............
(PID.TID 0000.0001) //      6 ................................................................-----------------..............................-----------................
(PID.TID 0000.0001) //      5 ...............................................................------------------........................-----------------................
(PID.TID 0000.0001) //      4 ..................................................................----------------...........................---..........................
(PID.TID 0000.0001) //      3 ..........................................................................................................................................
(PID.TID 0000.0001) //      2 ..........................................................................................................................................
(PID.TID 0000.0001) //      1 ..........................................................................................................................................
(PID.TID 0000.0001) //      0 ..........................................................................................................................................
(PID.TID 0000.0001) //     -1 ..........................................................................................................................................
(PID.TID 0000.0001) //     -2 ..........................................................................................................................................
(PID.TID 0000.0001) //     -3 ..........................................................................................................................................
(PID.TID 0000.0001) //     -4 ..........................................................................................................................................
(PID.TID 0000.0001) // =======================================================
(PID.TID 0000.0001) // END OF FIELD                                          =
(PID.TID 0000.0001) // =======================================================
(PID.TID 0000.0001) 
(PID.TID 0000.0001) %MON fCori_max                    =   1.4540029928789E-04
(PID.TID 0000.0001) %MON fCori_min                    =  -1.4540029928789E-04
(PID.TID 0000.0001) %MON fCori_mean                   =  -2.2565487110447E-21
(PID.TID 0000.0001) %MON fCori_sd                     =   1.0284451245737E-04
(PID.TID 0000.0001) %MON fCoriG_max                   =   1.4526891053949E-04
(PID.TID 0000.0001) %MON fCoriG_min                   =  -1.4544410433286E-04
(PID.TID 0000.0001) %MON fCoriG_mean                  =  -2.3086365767121E-06
(PID.TID 0000.0001) %MON fCoriG_sd                    =   1.0363181330709E-04
(PID.TID 0000.0001)  PACKAGE_INIT: opening data.pkg
(PID.TID 0000.0001)  OPEN_COPY_DATA_FILE: opening file data.pkg
(PID.TID 0000.0001) // =======================================================
(PID.TID 0000.0001) // Parameter file "data.pkg"
(PID.TID 0000.0001) // =======================================================
(PID.TID 0000.0001) ># Packages
(PID.TID 0000.0001) > &PACKAGES
(PID.TID 0000.0001) > useAIM=.TRUE.,
(PID.TID 0000.0001) > useSHAP_FILT=.TRUE.,
(PID.TID 0000.0001) > &
(PID.TID 0000.0001) 
(PID.TID 0000.0001)  PACKAGE_INIT: finished reading data.pkg
(PID.TID 0000.0001)  SHAP_FILT_READPARMS: opening data.shap
(PID.TID 0000.0001)  OPEN_COPY_DATA_FILE: opening file data.shap
(PID.TID 0000.0001) // =======================================================
(PID.TID 0000.0001) // Parameter file "data.shap"
(PID.TID 0000.0001) // =======================================================
(PID.TID 0000.0001) ># Packages
(PID.TID 0000.0001) > &SHAP_PARM01
(PID.TID 0000.0001) > nShapT=4,
(PID.TID 0000.0001) > nShapUV=4,
(PID.TID 0000.0001) > Shap_funct=4,
(PID.TID 0000.0001) > &
(PID.TID 0000.0001) 
(PID.TID 0000.0001)  SHAP_FILT_READPARMS: finished reading data.shap
(PID.TID 0000.0001) // CG2D normalisation factor =          0.2454122852291226400000000E-06
(PID.TID 0000.0001) 
 ini_cg2d: sumArea,cg2dTolerance =  5.09904363781794E+14  4.17122650546640E-12
(PID.TID 0000.0001) // =======================================================
(PID.TID 0000.0001) // Model configuration
(PID.TID 0000.0001) // =======================================================
(PID.TID 0000.0001) //
(PID.TID 0000.0001) // "Physical" paramters ( PARM01 in namelist )
(PID.TID 0000.0001) //
(PID.TID 0000.0001) tRef =   /* Reference temperature profile ( oC or oK ) */
(PID.TID 0000.0001)                 2.810890000000000E+02,      /* K =  1 */
(PID.TID 0000.0001)                 2.893210000000000E+02,      /* K =  2 */
(PID.TID 0000.0001)                 3.071910000000000E+02,      /* K =  3 */
(PID.TID 0000.0001)                 3.313770000000000E+02,      /* K =  4 */
(PID.TID 0000.0001)                 4.324130000000000E+02       /* K =  5 */
(PID.TID 0000.0001)     ;
(PID.TID 0000.0001) sRef =   /* Reference salinity profile ( ppt ) */
(PID.TID 0000.0001)     5 @  0.000000000000000E+00              /* K =  1:  5 */
(PID.TID 0000.0001)     ;
(PID.TID 0000.0001) viscAh =   /* Lateral eddy viscosity ( m^2/s ) */
(PID.TID 0000.0001)                 0.000000000000000E+00
(PID.TID 0000.0001)     ;
(PID.TID 0000.0001) viscAh =   /* Lateral biharmonic viscosity ( m^4/s ) */
(PID.TID 0000.0001)                 0.000000000000000E+00
(PID.TID 0000.0001)     ;
(PID.TID 0000.0001) no_slip_sides =  /* Viscous BCs: No-slip sides */
(PID.TID 0000.0001)                   F
(PID.TID 0000.0001)     ;
(PID.TID 0000.0001) viscAr =   /* Vertical eddy viscosity ( units of r^2/s ) */
(PID.TID 0000.0001)                 0.000000000000000E+00
(PID.TID 0000.0001)     ;
(PID.TID 0000.0001) diffKhT =   /* Laplacian diffusion of heat laterally ( m^2/s ) */
(PID.TID 0000.0001)                 0.000000000000000E+00
(PID.TID 0000.0001)     ;
(PID.TID 0000.0001) diffK4T =   /* Bihaarmonic diffusion of heat laterally ( m^4/s ) */
(PID.TID 0000.0001)                 0.000000000000000E+00
(PID.TID 0000.0001)     ;
(PID.TID 0000.0001) diffKzT =   /* Laplacian diffusion of heat vertically ( m^2/s ) */
(PID.TID 0000.0001)                 1.234567000000000E+05
(PID.TID 0000.0001)     ;
(PID.TID 0000.0001) diffKrT =   /* Laplacian diffusion of heat vertically ( m^2/s ) */
(PID.TID 0000.0001)                 0.000000000000000E+00
(PID.TID 0000.0001)     ;
(PID.TID 0000.0001) diffKhS =   /* Laplacian diffusion of salt laterally ( m^2/s ) */
(PID.TID 0000.0001)                 0.000000000000000E+00
(PID.TID 0000.0001)     ;
(PID.TID 0000.0001) diffK4S =   /* Bihaarmonic diffusion of salt laterally ( m^4/s ) */
(PID.TID 0000.0001)                 0.000000000000000E+00
(PID.TID 0000.0001)     ;
(PID.TID 0000.0001) diffKzS =   /* Laplacian diffusion of salt vertically ( m^2/s ) */
(PID.TID 0000.0001)                 1.234567000000000E+05
(PID.TID 0000.0001)     ;
(PID.TID 0000.0001) diffKrS =   /* Laplacian diffusion of salt vertically ( m^2/s ) */
(PID.TID 0000.0001)                 0.000000000000000E+00
(PID.TID 0000.0001)     ;
(PID.TID 0000.0001) tAlpha =   /* Linear EOS thermal expansion coefficient ( 1/degree ) */
(PID.TID 0000.0001)                 2.000000000000000E-04
(PID.TID 0000.0001)     ;
(PID.TID 0000.0001) sBeta =   /* Linear EOS haline contraction coefficient ( 1/ppt ) */
(PID.TID 0000.0001)                 7.400000000000001E-04
(PID.TID 0000.0001)     ;
(PID.TID 0000.0001) rhonil =   /* Reference density ( kg/m^3 ) */
(PID.TID 0000.0001)                 1.000000000000000E+00
(PID.TID 0000.0001)     ;
(PID.TID 0000.0001) rhoConst =   /* Reference density ( kg/m^3 ) */
(PID.TID 0000.0001)                 1.000000000000000E+00
(PID.TID 0000.0001)     ;
(PID.TID 0000.0001) gravity =   /* Gravitational acceleration ( m/s^2 ) */
(PID.TID 0000.0001)                 9.810000000000001E+00
(PID.TID 0000.0001)     ;
(PID.TID 0000.0001) gBaro =   /* Barotropic gravity ( m/s^2 ) */
(PID.TID 0000.0001)                 9.810000000000001E+00
(PID.TID 0000.0001)     ;
(PID.TID 0000.0001) f0 =   /* Reference coriolis parameter ( 1/s ) */
(PID.TID 0000.0001)                 1.000000000000000E-04
(PID.TID 0000.0001)     ;
(PID.TID 0000.0001) beta =   /* Beta ( 1/(m.s) ) */
(PID.TID 0000.0001)                 9.999999999999998E-12
(PID.TID 0000.0001)     ;
(PID.TID 0000.0001) freeSurfFac =   /* Implicit free surface factor */
(PID.TID 0000.0001)                 1.000000000000000E+00
(PID.TID 0000.0001)     ;
(PID.TID 0000.0001) implicitFreeSurface =   /* Implicit free surface on/off flag */
(PID.TID 0000.0001)                   T
(PID.TID 0000.0001)     ;
(PID.TID 0000.0001) rigidLid =   /* Rigid lid on/off flag */
(PID.TID 0000.0001)                   F
(PID.TID 0000.0001)     ;
(PID.TID 0000.0001) implicSurfPress =   /* Surface Pressure implicit factor (0-1)*/
(PID.TID 0000.0001)                 1.000000000000000E+00
(PID.TID 0000.0001)     ;
(PID.TID 0000.0001) implicDiv2Dflow =   /* Barot. Flow Div. implicit factor (0-1)*/
(PID.TID 0000.0001)                 1.000000000000000E+00
(PID.TID 0000.0001)     ;
(PID.TID 0000.0001) staggerTimeStep =   /* Stagger time stepping on/off flag */
(PID.TID 0000.0001)                   T
(PID.TID 0000.0001)     ;
(PID.TID 0000.0001) momStepping =  /* Momentum equation on/off flag */
(PID.TID 0000.0001)                   T
(PID.TID 0000.0001)     ;
(PID.TID 0000.0001) momAdvection =  /* Momentum advection on/off flag */
(PID.TID 0000.0001)                   T
(PID.TID 0000.0001)     ;
(PID.TID 0000.0001) momViscosity =  /* Momentum viscosity on/off flag */
(PID.TID 0000.0001)                   T
(PID.TID 0000.0001)     ;
(PID.TID 0000.0001) useCoriolis =  /* Coriolis on/off flag */
(PID.TID 0000.0001)                   T
(PID.TID 0000.0001)     ;
(PID.TID 0000.0001) momForcing =  /* Momentum forcing on/off flag */
(PID.TID 0000.0001)                   T
(PID.TID 0000.0001)     ;
(PID.TID 0000.0001) momPressureForcing =  /* Momentum pressure term on/off flag */
(PID.TID 0000.0001)                   T
(PID.TID 0000.0001)     ;
(PID.TID 0000.0001) tempStepping =  /* Temperature equation on/off flag */
(PID.TID 0000.0001)                   T
(PID.TID 0000.0001)     ;
(PID.TID 0000.0001) nonHydrostatic =  /* Non-Hydrostatic on/off flag */
(PID.TID 0000.0001)                   F
(PID.TID 0000.0001)     ;
(PID.TID 0000.0001) //
(PID.TID 0000.0001) // Elliptic solver(s) paramters ( PARM02 in namelist )
(PID.TID 0000.0001) //
(PID.TID 0000.0001) cg2dMaxIters =   /* Upper limit on 2d con. grad iterations  */
(PID.TID 0000.0001)                     200
(PID.TID 0000.0001)     ;
(PID.TID 0000.0001) cg2dChkResFreq =   /* 2d con. grad convergence test frequency */
(PID.TID 0000.0001)                       1
(PID.TID 0000.0001)     ;
(PID.TID 0000.0001) cg2dTargetResidual =   /* 2d con. grad target residual  */
(PID.TID 0000.0001)                 1.000000000000000E-07
(PID.TID 0000.0001)     ;
(PID.TID 0000.0001) //
(PID.TID 0000.0001) // Time stepping paramters ( PARM03 in namelist )
(PID.TID 0000.0001) //
(PID.TID 0000.0001) nIter0 =   /* Base timestep number  */
(PID.TID 0000.0001)                   25920
(PID.TID 0000.0001)     ;
(PID.TID 0000.0001) nTimeSteps =   /* Number of timesteps */
(PID.TID 0000.0001)                      10
(PID.TID 0000.0001)     ;
(PID.TID 0000.0001) deltatTmom =   /* Momentum equation timestep ( s ) */
(PID.TID 0000.0001)                 3.000000000000000E+02
(PID.TID 0000.0001)     ;
(PID.TID 0000.0001) deltatTtracer =   /* Tracer equation timestep ( s ) */
(PID.TID 0000.0001)                 3.000000000000000E+02
(PID.TID 0000.0001)     ;
(PID.TID 0000.0001) deltatTClock  =   /* Model clock timestep ( s ) */
(PID.TID 0000.0001)                 3.000000000000000E+02
(PID.TID 0000.0001)     ;
(PID.TID 0000.0001) cAdjFreq =   /* Convective adjustment interval ( s ) */
(PID.TID 0000.0001)                 0.000000000000000E+00
(PID.TID 0000.0001)     ;
(PID.TID 0000.0001) abeps =   /* Adams-Bashforth stabilizing weight */
(PID.TID 0000.0001)                 1.000000000000000E-01
(PID.TID 0000.0001)     ;
(PID.TID 0000.0001) tauCD =   /* CD coupling time-scale ( s ) */
(PID.TID 0000.0001)                 3.000000000000000E+02
(PID.TID 0000.0001)     ;
(PID.TID 0000.0001) rCD =   /* Normalised CD coupling parameter */
(PID.TID 0000.0001)                 0.000000000000000E+00
(PID.TID 0000.0001)     ;
(PID.TID 0000.0001) startTime =   /* Run start time ( s ). */
(PID.TID 0000.0001)                 7.776000000000000E+06
(PID.TID 0000.0001)     ;
(PID.TID 0000.0001) endTime =   /* Integration ending time ( s ). */
(PID.TID 0000.0001)                 7.779000000000000E+06
(PID.TID 0000.0001)     ;
(PID.TID 0000.0001) pChkPtFreq =   /* Permanent restart/checkpoint file interval ( s ). */
(PID.TID 0000.0001)                 2.592000000000000E+06
(PID.TID 0000.0001)     ;
(PID.TID 0000.0001) chkPtFreq =   /* Rolling restart/checkpoint file interval ( s ). */
(PID.TID 0000.0001)                 0.000000000000000E+00
(PID.TID 0000.0001)     ;
(PID.TID 0000.0001) dumpFreq =   /* Model state write out interval ( s ). */
(PID.TID 0000.0001)                 2.592000000000000E+06
(PID.TID 0000.0001)     ;
(PID.TID 0000.0001) //
(PID.TID 0000.0001) // Gridding paramters ( PARM04 in namelist )
(PID.TID 0000.0001) //
(PID.TID 0000.0001) usingCartesianGrid =   /* Cartesian coordinates flag ( True / False ) */
(PID.TID 0000.0001)                   F
(PID.TID 0000.0001)     ;
(PID.TID 0000.0001) usingSphericalPolarGrid =   /* Spherical coordinates flag ( True / False ) */
(PID.TID 0000.0001)                   T
(PID.TID 0000.0001)     ;
(PID.TID 0000.0001) groundAtK1 =   /* Lower Boundary (ground) at the surface(k=1) ( T / F ) */
(PID.TID 0000.0001)                   T
(PID.TID 0000.0001)     ;
(PID.TID 0000.0001) Ro_SeaLevel =   /* r(1) ( units of r ) */
(PID.TID 0000.0001)                 1.000000000000000E+05
(PID.TID 0000.0001)     ;
(PID.TID 0000.0001) rkFac =   /* minus Vertical index orientation  */
(PID.TID 0000.0001)                 1.000000000000000E+00
(PID.TID 0000.0001)     ;
(PID.TID 0000.0001) horiVertRatio =   /* Ratio on units : Horiz - Vertical */
(PID.TID 0000.0001)                 9.810000000000001E+00
(PID.TID 0000.0001)     ;
(PID.TID 0000.0001) delZ =   /* W spacing ( m ) */
(PID.TID 0000.0001)     5 @  1.234567000000000E+05              /* K =  1:  5 */
(PID.TID 0000.0001)     ;
(PID.TID 0000.0001) delP =   /* W spacing ( Pa ) */
(PID.TID 0000.0001)     5 @  1.234567000000000E+05              /* K =  1:  5 */
(PID.TID 0000.0001)     ;
(PID.TID 0000.0001) delR =   /* W spacing ( units of r ) */
(PID.TID 0000.0001)                 1.000000000000000E+04,      /* K =  1 */
(PID.TID 0000.0001)                 2.500000000000000E+04,      /* K =  2 */
(PID.TID 0000.0001)                 3.000000000000000E+04,      /* K =  3 */
(PID.TID 0000.0001)                 2.000000000000000E+04,      /* K =  4 */
(PID.TID 0000.0001)                 1.500000000000000E+04       /* K =  5 */
(PID.TID 0000.0001)     ;
(PID.TID 0000.0001) delX =   /* U spacing ( m - cartesian, degrees - spherical ) */
(PID.TID 0000.0001)   128 @  2.812500000000000E+00              /* I =  1:128 */
(PID.TID 0000.0001)     ;
(PID.TID 0000.0001) delY =   /* V spacing ( m - cartesian, degrees - spherical ) */
(PID.TID 0000.0001)    64 @  2.812500000000000E+00              /* J =  1: 64 */
(PID.TID 0000.0001)     ;
(PID.TID 0000.0001) phiMin =    /* South edge (ignored - cartesian, degrees - spherical ) */
(PID.TID 0000.0001)                -9.000000000000000E+01
(PID.TID 0000.0001)     ;
(PID.TID 0000.0001) thetaMin =    /* West edge ( ignored - cartesian, degrees - spherical ) */
(PID.TID 0000.0001)                 0.000000000000000E+00
(PID.TID 0000.0001)     ;
(PID.TID 0000.0001) rSphere =    /* Radius ( ignored - cartesian, m - spherical ) */
(PID.TID 0000.0001)                 6.370000000000000E+06
(PID.TID 0000.0001)     ;
(PID.TID 0000.0001) xcoord =   /* P-point X coord ( m - cartesian, degrees - spherical ) */
(PID.TID 0000.0001)                 1.406250000000000E+00,      /* I =  1 */
(PID.TID 0000.0001)                 4.218750000000000E+00,      /* I =  2 */
(PID.TID 0000.0001)                 7.031250000000000E+00,      /* I =  3 */
(PID.TID 0000.0001)                 9.843750000000000E+00,      /* I =  4 */
(PID.TID 0000.0001)                 1.265625000000000E+01,      /* I =  5 */
(PID.TID 0000.0001)                 1.546875000000000E+01,      /* I =  6 */
(PID.TID 0000.0001)                 1.828125000000000E+01,      /* I =  7 */
(PID.TID 0000.0001)                 2.109375000000000E+01,      /* I =  8 */
(PID.TID 0000.0001)                 2.390625000000000E+01,      /* I =  9 */
(PID.TID 0000.0001)                 2.671875000000000E+01,      /* I = 10 */
(PID.TID 0000.0001)                 2.953125000000000E+01,      /* I = 11 */
(PID.TID 0000.0001)                 3.234375000000000E+01,      /* I = 12 */
(PID.TID 0000.0001)                 3.515625000000000E+01,      /* I = 13 */
(PID.TID 0000.0001)                 3.796875000000000E+01,      /* I = 14 */
(PID.TID 0000.0001)                 4.078125000000000E+01,      /* I = 15 */
(PID.TID 0000.0001)                 4.359375000000000E+01,      /* I = 16 */
(PID.TID 0000.0001)                 4.640625000000000E+01,      /* I = 17 */
(PID.TID 0000.0001)                 4.921875000000000E+01,      /* I = 18 */
(PID.TID 0000.0001)                 5.203125000000000E+01,      /* I = 19 */
(PID.TID 0000.0001)                 5.484375000000000E+01,      /* I = 20 */
(PID.TID 0000.0001)                 5.765625000000000E+01,      /* I = 21 */
(PID.TID 0000.0001)                 6.046875000000000E+01,      /* I = 22 */
(PID.TID 0000.0001)                 6.328125000000000E+01,      /* I = 23 */
(PID.TID 0000.0001)                 6.609375000000000E+01,      /* I = 24 */
(PID.TID 0000.0001)                 6.890625000000000E+01,      /* I = 25 */
(PID.TID 0000.0001)                 7.171875000000000E+01,      /* I = 26 */
(PID.TID 0000.0001)                 7.453125000000000E+01,      /* I = 27 */
(PID.TID 0000.0001)                 7.734375000000000E+01,      /* I = 28 */
(PID.TID 0000.0001)                 8.015625000000000E+01,      /* I = 29 */
(PID.TID 0000.0001)                 8.296875000000000E+01,      /* I = 30 */
(PID.TID 0000.0001)                 8.578125000000000E+01,      /* I = 31 */
(PID.TID 0000.0001)                 8.859375000000000E+01,      /* I = 32 */
(PID.TID 0000.0001)                 9.140625000000000E+01,      /* I = 33 */
(PID.TID 0000.0001)                 9.421875000000000E+01,      /* I = 34 */
(PID.TID 0000.0001)                 9.703125000000000E+01,      /* I = 35 */
(PID.TID 0000.0001)                 9.984375000000000E+01,      /* I = 36 */
(PID.TID 0000.0001)                 1.026562500000000E+02,      /* I = 37 */
(PID.TID 0000.0001)                 1.054687500000000E+02,      /* I = 38 */
(PID.TID 0000.0001)                 1.082812500000000E+02,      /* I = 39 */
(PID.TID 0000.0001)                 1.110937500000000E+02,      /* I = 40 */
(PID.TID 0000.0001)                 1.139062500000000E+02,      /* I = 41 */
(PID.TID 0000.0001)                 1.167187500000000E+02,      /* I = 42 */
(PID.TID 0000.0001)                 1.195312500000000E+02,      /* I = 43 */
(PID.TID 0000.0001)                 1.223437500000000E+02,      /* I = 44 */
(PID.TID 0000.0001)                 1.251562500000000E+02,      /* I = 45 */
(PID.TID 0000.0001)                 1.279687500000000E+02,      /* I = 46 */
(PID.TID 0000.0001)                 1.307812500000000E+02,      /* I = 47 */
(PID.TID 0000.0001)                 1.335937500000000E+02,      /* I = 48 */
(PID.TID 0000.0001)                 1.364062500000000E+02,      /* I = 49 */
(PID.TID 0000.0001)                 1.392187500000000E+02,      /* I = 50 */
(PID.TID 0000.0001)                 1.420312500000000E+02,      /* I = 51 */
(PID.TID 0000.0001)                 1.448437500000000E+02,      /* I = 52 */
(PID.TID 0000.0001)                 1.476562500000000E+02,      /* I = 53 */
(PID.TID 0000.0001)                 1.504687500000000E+02,      /* I = 54 */
(PID.TID 0000.0001)                 1.532812500000000E+02,      /* I = 55 */
(PID.TID 0000.0001)                 1.560937500000000E+02,      /* I = 56 */
(PID.TID 0000.0001)                 1.589062500000000E+02,      /* I = 57 */
(PID.TID 0000.0001)                 1.617187500000000E+02,      /* I = 58 */
(PID.TID 0000.0001)                 1.645312500000000E+02,      /* I = 59 */
(PID.TID 0000.0001)                 1.673437500000000E+02,      /* I = 60 */
(PID.TID 0000.0001)                 1.701562500000000E+02,      /* I = 61 */
(PID.TID 0000.0001)                 1.729687500000000E+02,      /* I = 62 */
(PID.TID 0000.0001)                 1.757812500000000E+02,      /* I = 63 */
(PID.TID 0000.0001)                 1.785937500000000E+02,      /* I = 64 */
(PID.TID 0000.0001)                 1.814062500000000E+02,      /* I = 65 */
(PID.TID 0000.0001)                 1.842187500000000E+02,      /* I = 66 */
(PID.TID 0000.0001)                 1.870312500000000E+02,      /* I = 67 */
(PID.TID 0000.0001)                 1.898437500000000E+02,      /* I = 68 */
(PID.TID 0000.0001)                 1.926562500000000E+02,      /* I = 69 */
(PID.TID 0000.0001)                 1.954687500000000E+02,      /* I = 70 */
(PID.TID 0000.0001)                 1.982812500000000E+02,      /* I = 71 */
(PID.TID 0000.0001)                 2.010937500000000E+02,      /* I = 72 */
(PID.TID 0000.0001)                 2.039062500000000E+02,      /* I = 73 */
(PID.TID 0000.0001)                 2.067187500000000E+02,      /* I = 74 */
(PID.TID 0000.0001)                 2.095312500000000E+02,      /* I = 75 */
(PID.TID 0000.0001)                 2.123437500000000E+02,      /* I = 76 */
(PID.TID 0000.0001)                 2.151562500000000E+02,      /* I = 77 */
(PID.TID 0000.0001)                 2.179687500000000E+02,      /* I = 78 */
(PID.TID 0000.0001)                 2.207812500000000E+02,      /* I = 79 */
(PID.TID 0000.0001)                 2.235937500000000E+02,      /* I = 80 */
(PID.TID 0000.0001)                 2.264062500000000E+02,      /* I = 81 */
(PID.TID 0000.0001)                 2.292187500000000E+02,      /* I = 82 */
(PID.TID 0000.0001)                 2.320312500000000E+02,      /* I = 83 */
(PID.TID 0000.0001)                 2.348437500000000E+02,      /* I = 84 */
(PID.TID 0000.0001)                 2.376562500000000E+02,      /* I = 85 */
(PID.TID 0000.0001)                 2.404687500000000E+02,      /* I = 86 */
(PID.TID 0000.0001)                 2.432812500000000E+02,      /* I = 87 */
(PID.TID 0000.0001)                 2.460937500000000E+02,      /* I = 88 */
(PID.TID 0000.0001)                 2.489062500000000E+02,      /* I = 89 */
(PID.TID 0000.0001)                 2.517187500000000E+02,      /* I = 90 */
(PID.TID 0000.0001)                 2.545312500000000E+02,      /* I = 91 */
(PID.TID 0000.0001)                 2.573437500000000E+02,      /* I = 92 */
(PID.TID 0000.0001)                 2.601562500000000E+02,      /* I = 93 */
(PID.TID 0000.0001)                 2.629687500000000E+02,      /* I = 94 */
(PID.TID 0000.0001)                 2.657812500000000E+02,      /* I = 95 */
(PID.TID 0000.0001)                 2.685937500000000E+02,      /* I = 96 */
(PID.TID 0000.0001)                 2.714062500000000E+02,      /* I = 97 */
(PID.TID 0000.0001)                 2.742187500000000E+02,      /* I = 98 */
(PID.TID 0000.0001)                 2.770312500000000E+02,      /* I = 99 */
(PID.TID 0000.0001)                 2.798437500000000E+02,      /* I =100 */
(PID.TID 0000.0001)                 2.826562500000000E+02,      /* I =101 */
(PID.TID 0000.0001)                 2.854687500000000E+02,      /* I =102 */
(PID.TID 0000.0001)                 2.882812500000000E+02,      /* I =103 */
(PID.TID 0000.0001)                 2.910937500000000E+02,      /* I =104 */
(PID.TID 0000.0001)                 2.939062500000000E+02,      /* I =105 */
(PID.TID 0000.0001)                 2.967187500000000E+02,      /* I =106 */
(PID.TID 0000.0001)                 2.995312500000000E+02,      /* I =107 */
(PID.TID 0000.0001)                 3.023437500000000E+02,      /* I =108 */
(PID.TID 0000.0001)                 3.051562500000000E+02,      /* I =109 */
(PID.TID 0000.0001)                 3.079687500000000E+02,      /* I =110 */
(PID.TID 0000.0001)                 3.107812500000000E+02,      /* I =111 */
(PID.TID 0000.0001)                 3.135937500000000E+02,      /* I =112 */
(PID.TID 0000.0001)                 3.164062500000000E+02,      /* I =113 */
(PID.TID 0000.0001)                 3.192187500000000E+02,      /* I =114 */
(PID.TID 0000.0001)                 3.220312500000000E+02,      /* I =115 */
(PID.TID 0000.0001)                 3.248437500000000E+02,      /* I =116 */
(PID.TID 0000.0001)                 3.276562500000000E+02,      /* I =117 */
(PID.TID 0000.0001)                 3.304687500000000E+02,      /* I =118 */
(PID.TID 0000.0001)                 3.332812500000000E+02,      /* I =119 */
(PID.TID 0000.0001)                 3.360937500000000E+02,      /* I =120 */
(PID.TID 0000.0001)                 3.389062500000000E+02,      /* I =121 */
(PID.TID 0000.0001)                 3.417187500000000E+02,      /* I =122 */
(PID.TID 0000.0001)                 3.445312500000000E+02,      /* I =123 */
(PID.TID 0000.0001)                 3.473437500000000E+02,      /* I =124 */
(PID.TID 0000.0001)                 3.501562500000000E+02,      /* I =125 */
(PID.TID 0000.0001)                 3.529687500000000E+02,      /* I =126 */
(PID.TID 0000.0001)                 3.557812500000000E+02,      /* I =127 */
(PID.TID 0000.0001)                 3.585937500000000E+02       /* I =128 */
(PID.TID 0000.0001)     ;
(PID.TID 0000.0001) ycoord =   /* P-point Y coord ( m - cartesian, degrees - spherical ) */
(PID.TID 0000.0001)                -8.859375000000000E+01,      /* J =  1 */
(PID.TID 0000.0001)                -8.578125000000000E+01,      /* J =  2 */
(PID.TID 0000.0001)                -8.296875000000000E+01,      /* J =  3 */
(PID.TID 0000.0001)                -8.015625000000000E+01,      /* J =  4 */
(PID.TID 0000.0001)                -7.734375000000000E+01,      /* J =  5 */
(PID.TID 0000.0001)                -7.453125000000000E+01,      /* J =  6 */
(PID.TID 0000.0001)                -7.171875000000000E+01,      /* J =  7 */
(PID.TID 0000.0001)                -6.890625000000000E+01,      /* J =  8 */
(PID.TID 0000.0001)                -6.609375000000000E+01,      /* J =  9 */
(PID.TID 0000.0001)                -6.328125000000000E+01,      /* J = 10 */
(PID.TID 0000.0001)                -6.046875000000000E+01,      /* J = 11 */
(PID.TID 0000.0001)                -5.765625000000000E+01,      /* J = 12 */
(PID.TID 0000.0001)                -5.484375000000000E+01,      /* J = 13 */
(PID.TID 0000.0001)                -5.203125000000000E+01,      /* J = 14 */
(PID.TID 0000.0001)                -4.921875000000000E+01,      /* J = 15 */
(PID.TID 0000.0001)                -4.640625000000000E+01,      /* J = 16 */
(PID.TID 0000.0001)                -4.359375000000000E+01,      /* J = 17 */
(PID.TID 0000.0001)                -4.078125000000000E+01,      /* J = 18 */
(PID.TID 0000.0001)                -3.796875000000000E+01,      /* J = 19 */
(PID.TID 0000.0001)                -3.515625000000000E+01,      /* J = 20 */
(PID.TID 0000.0001)                -3.234375000000000E+01,      /* J = 21 */
(PID.TID 0000.0001)                -2.953125000000000E+01,      /* J = 22 */
(PID.TID 0000.0001)                -2.671875000000000E+01,      /* J = 23 */
(PID.TID 0000.0001)                -2.390625000000000E+01,      /* J = 24 */
(PID.TID 0000.0001)                -2.109375000000000E+01,      /* J = 25 */
(PID.TID 0000.0001)                -1.828125000000000E+01,      /* J = 26 */
(PID.TID 0000.0001)                -1.546875000000000E+01,      /* J = 27 */
(PID.TID 0000.0001)                -1.265625000000000E+01,      /* J = 28 */
(PID.TID 0000.0001)                -9.843750000000000E+00,      /* J = 29 */
(PID.TID 0000.0001)                -7.031250000000000E+00,      /* J = 30 */
(PID.TID 0000.0001)                -4.218750000000000E+00,      /* J = 31 */
(PID.TID 0000.0001)                -1.406250000000000E+00,      /* J = 32 */
(PID.TID 0000.0001)                 1.406250000000000E+00,      /* J = 33 */
(PID.TID 0000.0001)                 4.218750000000000E+00,      /* J = 34 */
(PID.TID 0000.0001)                 7.031250000000000E+00,      /* J = 35 */
(PID.TID 0000.0001)                 9.843750000000000E+00,      /* J = 36 */
(PID.TID 0000.0001)                 1.265625000000000E+01,      /* J = 37 */
(PID.TID 0000.0001)                 1.546875000000000E+01,      /* J = 38 */
(PID.TID 0000.0001)                 1.828125000000000E+01,      /* J = 39 */
(PID.TID 0000.0001)                 2.109375000000000E+01,      /* J = 40 */
(PID.TID 0000.0001)                 2.390625000000000E+01,      /* J = 41 */
(PID.TID 0000.0001)                 2.671875000000000E+01,      /* J = 42 */
(PID.TID 0000.0001)                 2.953125000000000E+01,      /* J = 43 */
(PID.TID 0000.0001)                 3.234375000000000E+01,      /* J = 44 */
(PID.TID 0000.0001)                 3.515625000000000E+01,      /* J = 45 */
(PID.TID 0000.0001)                 3.796875000000000E+01,      /* J = 46 */
(PID.TID 0000.0001)                 4.078125000000000E+01,      /* J = 47 */
(PID.TID 0000.0001)                 4.359375000000000E+01,      /* J = 48 */
(PID.TID 0000.0001)                 4.640625000000000E+01,      /* J = 49 */
(PID.TID 0000.0001)                 4.921875000000000E+01,      /* J = 50 */
(PID.TID 0000.0001)                 5.203125000000000E+01,      /* J = 51 */
(PID.TID 0000.0001)                 5.484375000000000E+01,      /* J = 52 */
(PID.TID 0000.0001)                 5.765625000000000E+01,      /* J = 53 */
(PID.TID 0000.0001)                 6.046875000000000E+01,      /* J = 54 */
(PID.TID 0000.0001)                 6.328125000000000E+01,      /* J = 55 */
(PID.TID 0000.0001)                 6.609375000000000E+01,      /* J = 56 */
(PID.TID 0000.0001)                 6.890625000000000E+01,      /* J = 57 */
(PID.TID 0000.0001)                 7.171875000000000E+01,      /* J = 58 */
(PID.TID 0000.0001)                 7.453125000000000E+01,      /* J = 59 */
(PID.TID 0000.0001)                 7.734375000000000E+01,      /* J = 60 */
(PID.TID 0000.0001)                 8.015625000000000E+01,      /* J = 61 */
(PID.TID 0000.0001)                 8.296875000000000E+01,      /* J = 62 */
(PID.TID 0000.0001)                 8.578125000000000E+01,      /* J = 63 */
(PID.TID 0000.0001)                 8.859375000000000E+01       /* J = 64 */
(PID.TID 0000.0001)     ;
(PID.TID 0000.0001) rcoord =   /* P-point R coordinate (  units of r ) */
(PID.TID 0000.0001)                 9.500000000000000E+04,      /* K =  1 */
(PID.TID 0000.0001)                 7.750000000000000E+04,      /* K =  2 */
(PID.TID 0000.0001)                 5.000000000000000E+04,      /* K =  3 */
(PID.TID 0000.0001)                 2.500000000000000E+04,      /* K =  4 */
(PID.TID 0000.0001)                 7.500000000000000E+03       /* K =  5 */
(PID.TID 0000.0001)     ;
(PID.TID 0000.0001) dxF =  /* dxF(:,1,:,1) ( m - cartesian, degrees - spherical ) */
(PID.TID 0000.0001)   128 @  7.673714381622298E+03              /* I =  1:128 */
(PID.TID 0000.0001)     ;
(PID.TID 0000.0001) dxF =  /* dxF(1,:,1,:) ( m - cartesian, degrees - spherical ) */
(PID.TID 0000.0001)                 7.673714381622298E+03,      /* J =  1 */
(PID.TID 0000.0001)                 2.300265649478360E+04,      /* J =  2 */
(PID.TID 0000.0001)                 3.827618319365422E+04,      /* J =  3 */
(PID.TID 0000.0001)                 5.345749921461356E+04,      /* J =  4 */
(PID.TID 0000.0001)                 6.851003143764105E+04,      /* J =  5 */
(PID.TID 0000.0001)                 8.339751699416523E+04,      /* J =  6 */
(PID.TID 0000.0001)                 9.808409062749070E+04,      /* J =  7 */
(PID.TID 0000.0001)                 1.125343710953429E+05,      /* J =  8 */
(PID.TID 0000.0001)                 1.267135464063795E+05,      /* J =  9 */
(PID.TID 0000.0001)                 1.405874576853274E+05,      /* J = 10 */
(PID.TID 0000.0001)                 1.541226814647045E+05,      /* J = 11 */
(PID.TID 0000.0001)                 1.672866102048805E+05,      /* J = 12 */
(PID.TID 0000.0001)                 1.800475308484964E+05,      /* J = 13 */
(PID.TID 0000.0001)                 1.923747012199971E+05,      /* J = 14 */
(PID.TID 0000.0001)                 2.042384240862251E+05,      /* J = 15 */
(PID.TID 0000.0001)                 2.156101186996563E+05,      /* J = 16 */
(PID.TID 0000.0001)                 2.264623896519241E+05,      /* J = 17 */
(PID.TID 0000.0001)                 2.367690928717577E+05,      /* J = 18 */
(PID.TID 0000.0001)                 2.465053986083400E+05,      /* J = 19 */
(PID.TID 0000.0001)                 2.556478512483520E+05,      /* J = 20 */
(PID.TID 0000.0001)                 2.641744258225996E+05,      /* J = 21 */
(PID.TID 0000.0001)                 2.720645810660936E+05,      /* J = 22 */
(PID.TID 0000.0001)                 2.792993089037566E+05,      /* J = 23 */
(PID.TID 0000.0001)                 2.858611802425402E+05,      /* J = 24 */
(PID.TID 0000.0001)                 2.917343869596373E+05,      /* J = 25 */
(PID.TID 0000.0001)                 2.969047799856344E+05,      /* J = 26 */
(PID.TID 0000.0001)                 3.013599033908587E+05,      /* J = 27 */
(PID.TID 0000.0001)                 3.050890243928044E+05,      /* J = 28 */
(PID.TID 0000.0001)                 3.080831592123453E+05,      /* J = 29 */
(PID.TID 0000.0001)                 3.103350947164461E+05,      /* J = 30 */
(PID.TID 0000.0001)                 3.118394057952310E+05,      /* J = 31 */
(PID.TID 0000.0001)     2 @  3.125924684315491E+05,             /* J = 32: 33 */
(PID.TID 0000.0001)                 3.118394057952310E+05,      /* J = 34 */
(PID.TID 0000.0001)                 3.103350947164461E+05,      /* J = 35 */
(PID.TID 0000.0001)                 3.080831592123453E+05,      /* J = 36 */
(PID.TID 0000.0001)                 3.050890243928044E+05,      /* J = 37 */
(PID.TID 0000.0001)                 3.013599033908587E+05,      /* J = 38 */
(PID.TID 0000.0001)                 2.969047799856344E+05,      /* J = 39 */
(PID.TID 0000.0001)                 2.917343869596373E+05,      /* J = 40 */
(PID.TID 0000.0001)                 2.858611802425402E+05,      /* J = 41 */
(PID.TID 0000.0001)                 2.792993089037566E+05,      /* J = 42 */
(PID.TID 0000.0001)                 2.720645810660936E+05,      /* J = 43 */
(PID.TID 0000.0001)                 2.641744258225996E+05,      /* J = 44 */
(PID.TID 0000.0001)                 2.556478512483520E+05,      /* J = 45 */
(PID.TID 0000.0001)                 2.465053986083400E+05,      /* J = 46 */
(PID.TID 0000.0001)                 2.367690928717577E+05,      /* J = 47 */
(PID.TID 0000.0001)                 2.264623896519241E+05,      /* J = 48 */
(PID.TID 0000.0001)                 2.156101186996563E+05,      /* J = 49 */
(PID.TID 0000.0001)                 2.042384240862251E+05,      /* J = 50 */
(PID.TID 0000.0001)                 1.923747012199971E+05,      /* J = 51 */
(PID.TID 0000.0001)                 1.800475308484964E+05,      /* J = 52 */
(PID.TID 0000.0001)                 1.672866102048805E+05,      /* J = 53 */
(PID.TID 0000.0001)                 1.541226814647045E+05,      /* J = 54 */
(PID.TID 0000.0001)                 1.405874576853274E+05,      /* J = 55 */
(PID.TID 0000.0001)                 1.267135464063795E+05,      /* J = 56 */
(PID.TID 0000.0001)                 1.125343710953429E+05,      /* J = 57 */
(PID.TID 0000.0001)                 9.808409062749070E+04,      /* J = 58 */
(PID.TID 0000.0001)                 8.339751699416523E+04,      /* J = 59 */
(PID.TID 0000.0001)                 6.851003143764105E+04,      /* J = 60 */
(PID.TID 0000.0001)                 5.345749921461356E+04,      /* J = 61 */
(PID.TID 0000.0001)                 3.827618319365422E+04,      /* J = 62 */
(PID.TID 0000.0001)                 2.300265649478360E+04,      /* J = 63 */
(PID.TID 0000.0001)                 7.673714381622298E+03       /* J = 64 */
(PID.TID 0000.0001)     ;
(PID.TID 0000.0001) dyF =  /* dyF(:,1,:,1) ( m - cartesian, degrees - spherical ) */
(PID.TID 0000.0001)   128 @  3.126866438026091E+05              /* I =  1:128 */
(PID.TID 0000.0001)     ;
(PID.TID 0000.0001) dyF =  /* dyF(1,:,1,:) ( m - cartesian, degrees - spherical ) */
(PID.TID 0000.0001)    64 @  3.126866438026091E+05              /* J =  1: 64 */
(PID.TID 0000.0001)     ;
(PID.TID 0000.0001) dxG =  /* dxG(:,1,:,1) ( m - cartesian, degrees - spherical ) */
(PID.TID 0000.0001)   128 @  0.000000000000000E+00              /* I =  1:128 */
(PID.TID 0000.0001)     ;
(PID.TID 0000.0001) dxG =  /* dxG(1,:,1,:) ( m - cartesian, degrees - spherical ) */
(PID.TID 0000.0001)                 0.000000000000000E+00,      /* J =  1 */
(PID.TID 0000.0001)                 1.534280640463982E+04,      /* J =  2 */
(PID.TID 0000.0001)                 3.064865064477965E+04,      /* J =  3 */
(PID.TID 0000.0001)                 4.588065960101153E+04,      /* J =  4 */
(PID.TID 0000.0001)                 6.100213802959343E+04,      /* J =  5 */
(PID.TID 0000.0001)                 7.597665696450579E+04,      /* J =  6 */
(PID.TID 0000.0001)                 9.076814147802141E+04,      /* J =  7 */
(PID.TID 0000.0001)                 1.053409575883663E+05,      /* J =  8 */
(PID.TID 0000.0001)                 1.196599981051027E+05,      /* J =  9 */
(PID.TID 0000.0001)                 1.336907672054259E+05,      /* J = 10 */
(PID.TID 0000.0001)                 1.473994635376230E+05,      /* J = 11 */
(PID.TID 0000.0001)                 1.607530616514898E+05,      /* J = 12 */
(PID.TID 0000.0001)                 1.737193915595329E+05,      /* J = 13 */
(PID.TID 0000.0001)                 1.862672162372875E+05,      /* J = 14 */
(PID.TID 0000.0001)                 1.983663068760452E+05,      /* J = 15 */
(PID.TID 0000.0001)                 2.099875157067021E+05,      /* J = 16 */
(PID.TID 0000.0001)                 2.211028462192875E+05,      /* J = 17 */
(PID.TID 0000.0001)                 2.316855206090085E+05,      /* J = 18 */
(PID.TID 0000.0001)                 2.417100442863275E+05,      /* J = 19 */
(PID.TID 0000.0001)                 2.511522672956614E+05,      /* J = 20 */
(PID.TID 0000.0001)                 2.599894424947395E+05,      /* J = 21 */
(PID.TID 0000.0001)                 2.682002803544621E+05,      /* J = 22 */
(PID.TID 0000.0001)                 2.757650002472408E+05,      /* J = 23 */
(PID.TID 0000.0001)                 2.826653781002625E+05,      /* J = 24 */
(PID.TID 0000.0001)                 2.888847902988778E+05,      /* J = 25 */
(PID.TID 0000.0001)                 2.944082537343438E+05,      /* J = 26 */
(PID.TID 0000.0001)                 2.992224618994463E+05,      /* J = 27 */
(PID.TID 0000.0001)                 3.033158169450409E+05,      /* J = 28 */
(PID.TID 0000.0001)                 3.066784576202870E+05,      /* J = 29 */
(PID.TID 0000.0001)                 3.093022830292655E+05,      /* J = 30 */
(PID.TID 0000.0001)                 3.111809721467461E+05,      /* J = 31 */
(PID.TID 0000.0001)                 3.123099990460912E+05,      /* J = 32 */
(PID.TID 0000.0001)                 3.126866438026091E+05,      /* J = 33 */
(PID.TID 0000.0001)                 3.123099990460912E+05,      /* J = 34 */
(PID.TID 0000.0001)                 3.111809721467461E+05,      /* J = 35 */
(PID.TID 0000.0001)                 3.093022830292655E+05,      /* J = 36 */
(PID.TID 0000.0001)                 3.066784576202870E+05,      /* J = 37 */
(PID.TID 0000.0001)                 3.033158169450409E+05,      /* J = 38 */
(PID.TID 0000.0001)                 2.992224618994463E+05,      /* J = 39 */
(PID.TID 0000.0001)                 2.944082537343438E+05,      /* J = 40 */
(PID.TID 0000.0001)                 2.888847902988778E+05,      /* J = 41 */
(PID.TID 0000.0001)                 2.826653781002625E+05,      /* J = 42 */
(PID.TID 0000.0001)                 2.757650002472408E+05,      /* J = 43 */
(PID.TID 0000.0001)                 2.682002803544621E+05,      /* J = 44 */
(PID.TID 0000.0001)                 2.599894424947395E+05,      /* J = 45 */
(PID.TID 0000.0001)                 2.511522672956614E+05,      /* J = 46 */
(PID.TID 0000.0001)                 2.417100442863275E+05,      /* J = 47 */
(PID.TID 0000.0001)                 2.316855206090085E+05,      /* J = 48 */
(PID.TID 0000.0001)                 2.211028462192875E+05,      /* J = 49 */
(PID.TID 0000.0001)                 2.099875157067021E+05,      /* J = 50 */
(PID.TID 0000.0001)                 1.983663068760452E+05,      /* J = 51 */
(PID.TID 0000.0001)                 1.862672162372875E+05,      /* J = 52 */
(PID.TID 0000.0001)                 1.737193915595329E+05,      /* J = 53 */
(PID.TID 0000.0001)                 1.607530616514898E+05,      /* J = 54 */
(PID.TID 0000.0001)                 1.473994635376230E+05,      /* J = 55 */
(PID.TID 0000.0001)                 1.336907672054259E+05,      /* J = 56 */
(PID.TID 0000.0001)                 1.196599981051027E+05,      /* J = 57 */
(PID.TID 0000.0001)                 1.053409575883663E+05,      /* J = 58 */
(PID.TID 0000.0001)                 9.076814147802141E+04,      /* J = 59 */
(PID.TID 0000.0001)                 7.597665696450579E+04,      /* J = 60 */
(PID.TID 0000.0001)                 6.100213802959343E+04,      /* J = 61 */
(PID.TID 0000.0001)                 4.588065960101153E+04,      /* J = 62 */
(PID.TID 0000.0001)                 3.064865064477965E+04,      /* J = 63 */
(PID.TID 0000.0001)                 1.534280640463982E+04       /* J = 64 */
(PID.TID 0000.0001)     ;
(PID.TID 0000.0001) dyG =  /* dyG(:,1,:,1) ( m - cartesian, degrees - spherical ) */
(PID.TID 0000.0001)   128 @  3.126866438026091E+05              /* I =  1:128 */
(PID.TID 0000.0001)     ;
(PID.TID 0000.0001) dyG =  /* dyG(1,:,1,:) ( m - cartesian, degrees - spherical ) */
(PID.TID 0000.0001)    64 @  3.126866438026091E+05              /* J =  1: 64 */
(PID.TID 0000.0001)     ;
(PID.TID 0000.0001) dxC =  /* dxC(:,1,:,1) ( m - cartesian, degrees - spherical ) */
(PID.TID 0000.0001)   128 @  7.673714381622298E+03              /* I =  1:128 */
(PID.TID 0000.0001)     ;
(PID.TID 0000.0001) dxC =  /* dxC(1,:,1,:) ( m - cartesian, degrees - spherical ) */
(PID.TID 0000.0001)                 7.673714381622298E+03,      /* J =  1 */
(PID.TID 0000.0001)                 2.300265649478360E+04,      /* J =  2 */
(PID.TID 0000.0001)                 3.827618319365422E+04,      /* J =  3 */
(PID.TID 0000.0001)                 5.345749921461356E+04,      /* J =  4 */
(PID.TID 0000.0001)                 6.851003143764105E+04,      /* J =  5 */
(PID.TID 0000.0001)                 8.339751699416523E+04,      /* J =  6 */
(PID.TID 0000.0001)                 9.808409062749070E+04,      /* J =  7 */
(PID.TID 0000.0001)                 1.125343710953429E+05,      /* J =  8 */
(PID.TID 0000.0001)                 1.267135464063795E+05,      /* J =  9 */
(PID.TID 0000.0001)                 1.405874576853274E+05,      /* J = 10 */
(PID.TID 0000.0001)                 1.541226814647045E+05,      /* J = 11 */
(PID.TID 0000.0001)                 1.672866102048805E+05,      /* J = 12 */
(PID.TID 0000.0001)                 1.800475308484964E+05,      /* J = 13 */
(PID.TID 0000.0001)                 1.923747012199971E+05,      /* J = 14 */
(PID.TID 0000.0001)                 2.042384240862251E+05,      /* J = 15 */
(PID.TID 0000.0001)                 2.156101186996563E+05,      /* J = 16 */
(PID.TID 0000.0001)                 2.264623896519241E+05,      /* J = 17 */
(PID.TID 0000.0001)                 2.367690928717577E+05,      /* J = 18 */
(PID.TID 0000.0001)                 2.465053986083400E+05,      /* J = 19 */
(PID.TID 0000.0001)                 2.556478512483520E+05,      /* J = 20 */
(PID.TID 0000.0001)                 2.641744258225996E+05,      /* J = 21 */
(PID.TID 0000.0001)                 2.720645810660936E+05,      /* J = 22 */
(PID.TID 0000.0001)                 2.792993089037566E+05,      /* J = 23 */
(PID.TID 0000.0001)                 2.858611802425402E+05,      /* J = 24 */
(PID.TID 0000.0001)                 2.917343869596373E+05,      /* J = 25 */
(PID.TID 0000.0001)                 2.969047799856344E+05,      /* J = 26 */
(PID.TID 0000.0001)                 3.013599033908587E+05,      /* J = 27 */
(PID.TID 0000.0001)                 3.050890243928044E+05,      /* J = 28 */
(PID.TID 0000.0001)                 3.080831592123453E+05,      /* J = 29 */
(PID.TID 0000.0001)                 3.103350947164461E+05,      /* J = 30 */
(PID.TID 0000.0001)                 3.118394057952310E+05,      /* J = 31 */
(PID.TID 0000.0001)     2 @  3.125924684315491E+05,             /* J = 32: 33 */
(PID.TID 0000.0001)                 3.118394057952310E+05,      /* J = 34 */
(PID.TID 0000.0001)                 3.103350947164461E+05,      /* J = 35 */
(PID.TID 0000.0001)                 3.080831592123453E+05,      /* J = 36 */
(PID.TID 0000.0001)                 3.050890243928044E+05,      /* J = 37 */
(PID.TID 0000.0001)                 3.013599033908587E+05,      /* J = 38 */
(PID.TID 0000.0001)                 2.969047799856344E+05,      /* J = 39 */
(PID.TID 0000.0001)                 2.917343869596373E+05,      /* J = 40 */
(PID.TID 0000.0001)                 2.858611802425402E+05,      /* J = 41 */
(PID.TID 0000.0001)                 2.792993089037566E+05,      /* J = 42 */
(PID.TID 0000.0001)                 2.720645810660936E+05,      /* J = 43 */
(PID.TID 0000.0001)                 2.641744258225996E+05,      /* J = 44 */
(PID.TID 0000.0001)                 2.556478512483520E+05,      /* J = 45 */
(PID.TID 0000.0001)                 2.465053986083400E+05,      /* J = 46 */
(PID.TID 0000.0001)                 2.367690928717577E+05,      /* J = 47 */
(PID.TID 0000.0001)                 2.264623896519241E+05,      /* J = 48 */
(PID.TID 0000.0001)                 2.156101186996563E+05,      /* J = 49 */
(PID.TID 0000.0001)                 2.042384240862251E+05,      /* J = 50 */
(PID.TID 0000.0001)                 1.923747012199971E+05,      /* J = 51 */
(PID.TID 0000.0001)                 1.800475308484964E+05,      /* J = 52 */
(PID.TID 0000.0001)                 1.672866102048805E+05,      /* J = 53 */
(PID.TID 0000.0001)                 1.541226814647045E+05,      /* J = 54 */
(PID.TID 0000.0001)                 1.405874576853274E+05,      /* J = 55 */
(PID.TID 0000.0001)                 1.267135464063795E+05,      /* J = 56 */
(PID.TID 0000.0001)                 1.125343710953429E+05,      /* J = 57 */
(PID.TID 0000.0001)                 9.808409062749070E+04,      /* J = 58 */
(PID.TID 0000.0001)                 8.339751699416523E+04,      /* J = 59 */
(PID.TID 0000.0001)                 6.851003143764105E+04,      /* J = 60 */
(PID.TID 0000.0001)                 5.345749921461356E+04,      /* J = 61 */
(PID.TID 0000.0001)                 3.827618319365422E+04,      /* J = 62 */
(PID.TID 0000.0001)                 2.300265649478360E+04,      /* J = 63 */
(PID.TID 0000.0001)                 7.673714381622298E+03       /* J = 64 */
(PID.TID 0000.0001)     ;
(PID.TID 0000.0001) dyC =  /* dyC(:,1,:,1) ( m - cartesian, degrees - spherical ) */
(PID.TID 0000.0001)   128 @  3.126866438026091E+05              /* I =  1:128 */
(PID.TID 0000.0001)     ;
(PID.TID 0000.0001) dyC =  /* dyC(1,:,1,:) ( m - cartesian, degrees - spherical ) */
(PID.TID 0000.0001)    64 @  3.126866438026091E+05              /* J =  1: 64 */
(PID.TID 0000.0001)     ;
(PID.TID 0000.0001) dxV =  /* dxV(:,1,:,1) ( m - cartesian, degrees - spherical ) */
(PID.TID 0000.0001)   128 @  0.000000000000000E+00              /* I =  1:128 */
(PID.TID 0000.0001)     ;
(PID.TID 0000.0001) dxV =  /* dxV(1,:,1,:) ( m - cartesian, degrees - spherical ) */
(PID.TID 0000.0001)                 0.000000000000000E+00,      /* J =  1 */
(PID.TID 0000.0001)                 1.534280640463982E+04,      /* J =  2 */
(PID.TID 0000.0001)                 3.064865064477965E+04,      /* J =  3 */
(PID.TID 0000.0001)                 4.588065960101153E+04,      /* J =  4 */
(PID.TID 0000.0001)                 6.100213802959343E+04,      /* J =  5 */
(PID.TID 0000.0001)                 7.597665696450579E+04,      /* J =  6 */
(PID.TID 0000.0001)                 9.076814147802141E+04,      /* J =  7 */
(PID.TID 0000.0001)                 1.053409575883663E+05,      /* J =  8 */
(PID.TID 0000.0001)                 1.196599981051027E+05,      /* J =  9 */
(PID.TID 0000.0001)                 1.336907672054259E+05,      /* J = 10 */
(PID.TID 0000.0001)                 1.473994635376230E+05,      /* J = 11 */
(PID.TID 0000.0001)                 1.607530616514898E+05,      /* J = 12 */
(PID.TID 0000.0001)                 1.737193915595329E+05,      /* J = 13 */
(PID.TID 0000.0001)                 1.862672162372875E+05,      /* J = 14 */
(PID.TID 0000.0001)                 1.983663068760452E+05,      /* J = 15 */
(PID.TID 0000.0001)                 2.099875157067021E+05,      /* J = 16 */
(PID.TID 0000.0001)                 2.211028462192875E+05,      /* J = 17 */
(PID.TID 0000.0001)                 2.316855206090085E+05,      /* J = 18 */
(PID.TID 0000.0001)                 2.417100442863275E+05,      /* J = 19 */
(PID.TID 0000.0001)                 2.511522672956614E+05,      /* J = 20 */
(PID.TID 0000.0001)                 2.599894424947395E+05,      /* J = 21 */
(PID.TID 0000.0001)                 2.682002803544621E+05,      /* J = 22 */
(PID.TID 0000.0001)                 2.757650002472408E+05,      /* J = 23 */
(PID.TID 0000.0001)                 2.826653781002625E+05,      /* J = 24 */
(PID.TID 0000.0001)                 2.888847902988778E+05,      /* J = 25 */
(PID.TID 0000.0001)                 2.944082537343438E+05,      /* J = 26 */
(PID.TID 0000.0001)                 2.992224618994463E+05,      /* J = 27 */
(PID.TID 0000.0001)                 3.033158169450409E+05,      /* J = 28 */
(PID.TID 0000.0001)                 3.066784576202870E+05,      /* J = 29 */
(PID.TID 0000.0001)                 3.093022830292655E+05,      /* J = 30 */
(PID.TID 0000.0001)                 3.111809721467461E+05,      /* J = 31 */
(PID.TID 0000.0001)                 3.123099990460912E+05,      /* J = 32 */
(PID.TID 0000.0001)                 3.126866438026091E+05,      /* J = 33 */
(PID.TID 0000.0001)                 3.123099990460912E+05,      /* J = 34 */
(PID.TID 0000.0001)                 3.111809721467461E+05,      /* J = 35 */
(PID.TID 0000.0001)                 3.093022830292655E+05,      /* J = 36 */
(PID.TID 0000.0001)                 3.066784576202870E+05,      /* J = 37 */
(PID.TID 0000.0001)                 3.033158169450409E+05,      /* J = 38 */
(PID.TID 0000.0001)                 2.992224618994463E+05,      /* J = 39 */
(PID.TID 0000.0001)                 2.944082537343438E+05,      /* J = 40 */
(PID.TID 0000.0001)                 2.888847902988778E+05,      /* J = 41 */
(PID.TID 0000.0001)                 2.826653781002625E+05,      /* J = 42 */
(PID.TID 0000.0001)                 2.757650002472408E+05,      /* J = 43 */
(PID.TID 0000.0001)                 2.682002803544621E+05,      /* J = 44 */
(PID.TID 0000.0001)                 2.599894424947395E+05,      /* J = 45 */
(PID.TID 0000.0001)                 2.511522672956614E+05,      /* J = 46 */
(PID.TID 0000.0001)                 2.417100442863275E+05,      /* J = 47 */
(PID.TID 0000.0001)                 2.316855206090085E+05,      /* J = 48 */
(PID.TID 0000.0001)                 2.211028462192875E+05,      /* J = 49 */
(PID.TID 0000.0001)                 2.099875157067021E+05,      /* J = 50 */
(PID.TID 0000.0001)                 1.983663068760452E+05,      /* J = 51 */
(PID.TID 0000.0001)                 1.862672162372875E+05,      /* J = 52 */
(PID.TID 0000.0001)                 1.737193915595329E+05,      /* J = 53 */
(PID.TID 0000.0001)                 1.607530616514898E+05,      /* J = 54 */
(PID.TID 0000.0001)                 1.473994635376230E+05,      /* J = 55 */
(PID.TID 0000.0001)                 1.336907672054259E+05,      /* J = 56 */
(PID.TID 0000.0001)                 1.196599981051027E+05,      /* J = 57 */
(PID.TID 0000.0001)                 1.053409575883663E+05,      /* J = 58 */
(PID.TID 0000.0001)                 9.076814147802141E+04,      /* J = 59 */
(PID.TID 0000.0001)                 7.597665696450579E+04,      /* J = 60 */
(PID.TID 0000.0001)                 6.100213802959343E+04,      /* J = 61 */
(PID.TID 0000.0001)                 4.588065960101153E+04,      /* J = 62 */
(PID.TID 0000.0001)                 3.064865064477965E+04,      /* J = 63 */
(PID.TID 0000.0001)                 1.534280640463982E+04       /* J = 64 */
(PID.TID 0000.0001)     ;
(PID.TID 0000.0001) dyU =  /* dyU(:,1,:,1) ( m - cartesian, degrees - spherical ) */
(PID.TID 0000.0001)   128 @  3.126866438026091E+05              /* I =  1:128 */
(PID.TID 0000.0001)     ;
(PID.TID 0000.0001) dyU =  /* dyU(1,:,1,:) ( m - cartesian, degrees - spherical ) */
(PID.TID 0000.0001)    64 @  3.126866438026091E+05              /* J =  1: 64 */
(PID.TID 0000.0001)     ;
(PID.TID 0000.0001) rA =  /* rA(:,1,:,1) ( m - cartesian, degrees - spherical ) */
(PID.TID 0000.0001)   128 @  2.399227099019018E+09              /* I =  1:128 */
(PID.TID 0000.0001)     ;
(PID.TID 0000.0001) rA =  /* rA(1,:,1,:) ( m - cartesian, degrees - spherical ) */
(PID.TID 0000.0001)                 2.399227099019018E+09,      /* J =  1 */
(PID.TID 0000.0001)                 7.191901348828057E+09,      /* J =  2 */
(PID.TID 0000.0001)                 1.196724967835171E+10,      /* J =  3 */
(PID.TID 0000.0001)                 1.671376785519299E+10,      /* J =  4 */
(PID.TID 0000.0001)                 2.142002110131771E+10,      /* J =  5 */
(PID.TID 0000.0001)                 2.607467164043704E+10,      /* J =  6 */
(PID.TID 0000.0001)                 3.066650601170350E+10,      /* J =  7 */
(PID.TID 0000.0001)                 3.518446208391881E+10,      /* J =  8 */
(PID.TID 0000.0001)                 3.961765570517892E+10,      /* J =  9 */
(PID.TID 0000.0001)                 4.395540692374861E+10,      /* J = 10 */
(PID.TID 0000.0001)                 4.818726571700000E+10,      /* J = 11 */
(PID.TID 0000.0001)                 5.230303716643333E+10,      /* J = 12 */
(PID.TID 0000.0001)                 5.629280601812741E+10,      /* J = 13 */
(PID.TID 0000.0001)                 6.014696056945659E+10,      /* J = 14 */
(PID.TID 0000.0001)                 6.385621582452238E+10,      /* J = 15 */
(PID.TID 0000.0001)                 6.741163586252304E+10,      /* J = 16 */
(PID.TID 0000.0001)                 7.080465536516847E+10,      /* J = 17 */
(PID.TID 0000.0001)                 7.402710025128452E+10,      /* J = 18 */
(PID.TID 0000.0001)                 7.707120736888658E+10,      /* J = 19 */
(PID.TID 0000.0001)                 7.992964319729683E+10,      /* J = 20 */
(PID.TID 0000.0001)                 8.259552151423444E+10,      /* J = 21 */
(PID.TID 0000.0001)                 8.506241998533159E+10,      /* J = 22 */
(PID.TID 0000.0001)                 8.732439563609566E+10,      /* J = 23 */
(PID.TID 0000.0001)                 8.937599916905872E+10,      /* J = 24 */
(PID.TID 0000.0001)                 9.121228809161066E+10,      /* J = 25 */
(PID.TID 0000.0001)                 9.282883862289705E+10,      /* J = 26 */
(PID.TID 0000.0001)                 9.422175635109474E+10,      /* J = 27 */
(PID.TID 0000.0001)                 9.538768561539165E+10,      /* J = 28 */
(PID.TID 0000.0001)                 9.632381759006651E+10,      /* J = 29 */
(PID.TID 0000.0001)                 9.702789705119698E+10,      /* J = 30 */
(PID.TID 0000.0001)                 9.749822780969106E+10,      /* J = 31 */
(PID.TID 0000.0001)     2 @  9.773367679755542E+10,             /* J = 32: 33 */
(PID.TID 0000.0001)                 9.749822780969106E+10,      /* J = 34 */
(PID.TID 0000.0001)                 9.702789705119698E+10,      /* J = 35 */
(PID.TID 0000.0001)                 9.632381759006651E+10,      /* J = 36 */
(PID.TID 0000.0001)                 9.538768561539165E+10,      /* J = 37 */
(PID.TID 0000.0001)                 9.422175635109474E+10,      /* J = 38 */
(PID.TID 0000.0001)                 9.282883862289705E+10,      /* J = 39 */
(PID.TID 0000.0001)                 9.121228809161066E+10,      /* J = 40 */
(PID.TID 0000.0001)                 8.937599916905872E+10,      /* J = 41 */
(PID.TID 0000.0001)                 8.732439563609566E+10,      /* J = 42 */
(PID.TID 0000.0001)                 8.506241998533159E+10,      /* J = 43 */
(PID.TID 0000.0001)                 8.259552151423444E+10,      /* J = 44 */
(PID.TID 0000.0001)                 7.992964319729683E+10,      /* J = 45 */
(PID.TID 0000.0001)                 7.707120736888658E+10,      /* J = 46 */
(PID.TID 0000.0001)                 7.402710025128452E+10,      /* J = 47 */
(PID.TID 0000.0001)                 7.080465536516847E+10,      /* J = 48 */
(PID.TID 0000.0001)                 6.741163586252304E+10,      /* J = 49 */
(PID.TID 0000.0001)                 6.385621582452238E+10,      /* J = 50 */
(PID.TID 0000.0001)                 6.014696056945659E+10,      /* J = 51 */
(PID.TID 0000.0001)                 5.629280601812741E+10,      /* J = 52 */
(PID.TID 0000.0001)                 5.230303716643333E+10,      /* J = 53 */
(PID.TID 0000.0001)                 4.818726571700000E+10,      /* J = 54 */
(PID.TID 0000.0001)                 4.395540692374861E+10,      /* J = 55 */
(PID.TID 0000.0001)                 3.961765570517892E+10,      /* J = 56 */
(PID.TID 0000.0001)                 3.518446208391881E+10,      /* J = 57 */
(PID.TID 0000.0001)                 3.066650601170350E+10,      /* J = 58 */
(PID.TID 0000.0001)                 2.607467164043704E+10,      /* J = 59 */
(PID.TID 0000.0001)                 2.142002110131771E+10,      /* J = 60 */
(PID.TID 0000.0001)                 1.671376785519299E+10,      /* J = 61 */
(PID.TID 0000.0001)                 1.196724967835171E+10,      /* J = 62 */
(PID.TID 0000.0001)                 7.191901348828057E+09,      /* J = 63 */
(PID.TID 0000.0001)                 2.399227099019018E+09       /* J = 64 */
(PID.TID 0000.0001)     ;
(PID.TID 0000.0001) rAw =  /* rAw(:,1,:,1) ( m - cartesian, degrees - spherical ) */
(PID.TID 0000.0001)   128 @  2.399227099019018E+09              /* I =  1:128 */
(PID.TID 0000.0001)     ;
(PID.TID 0000.0001) rAw =  /* rAw(1,:,1,:) ( m - cartesian, degrees - spherical ) */
(PID.TID 0000.0001)                 2.399227099019018E+09,      /* J =  1 */
(PID.TID 0000.0001)                 7.191901348828057E+09,      /* J =  2 */
(PID.TID 0000.0001)                 1.196724967835171E+10,      /* J =  3 */
(PID.TID 0000.0001)                 1.671376785519299E+10,      /* J =  4 */
(PID.TID 0000.0001)                 2.142002110131771E+10,      /* J =  5 */
(PID.TID 0000.0001)                 2.607467164043704E+10,      /* J =  6 */
(PID.TID 0000.0001)                 3.066650601170350E+10,      /* J =  7 */
(PID.TID 0000.0001)                 3.518446208391881E+10,      /* J =  8 */
(PID.TID 0000.0001)                 3.961765570517892E+10,      /* J =  9 */
(PID.TID 0000.0001)                 4.395540692374861E+10,      /* J = 10 */
(PID.TID 0000.0001)                 4.818726571700000E+10,      /* J = 11 */
(PID.TID 0000.0001)                 5.230303716643333E+10,      /* J = 12 */
(PID.TID 0000.0001)                 5.629280601812741E+10,      /* J = 13 */
(PID.TID 0000.0001)                 6.014696056945659E+10,      /* J = 14 */
(PID.TID 0000.0001)                 6.385621582452238E+10,      /* J = 15 */
(PID.TID 0000.0001)                 6.741163586252304E+10,      /* J = 16 */
(PID.TID 0000.0001)                 7.080465536516847E+10,      /* J = 17 */
(PID.TID 0000.0001)                 7.402710025128452E+10,      /* J = 18 */
(PID.TID 0000.0001)                 7.707120736888658E+10,      /* J = 19 */
(PID.TID 0000.0001)                 7.992964319729683E+10,      /* J = 20 */
(PID.TID 0000.0001)                 8.259552151423444E+10,      /* J = 21 */
(PID.TID 0000.0001)                 8.506241998533159E+10,      /* J = 22 */
(PID.TID 0000.0001)                 8.732439563609566E+10,      /* J = 23 */
(PID.TID 0000.0001)                 8.937599916905872E+10,      /* J = 24 */
(PID.TID 0000.0001)                 9.121228809161066E+10,      /* J = 25 */
(PID.TID 0000.0001)                 9.282883862289705E+10,      /* J = 26 */
(PID.TID 0000.0001)                 9.422175635109474E+10,      /* J = 27 */
(PID.TID 0000.0001)                 9.538768561539165E+10,      /* J = 28 */
(PID.TID 0000.0001)                 9.632381759006651E+10,      /* J = 29 */
(PID.TID 0000.0001)                 9.702789705119698E+10,      /* J = 30 */
(PID.TID 0000.0001)                 9.749822780969106E+10,      /* J = 31 */
(PID.TID 0000.0001)     2 @  9.773367679755542E+10,             /* J = 32: 33 */
(PID.TID 0000.0001)                 9.749822780969106E+10,      /* J = 34 */
(PID.TID 0000.0001)                 9.702789705119698E+10,      /* J = 35 */
(PID.TID 0000.0001)                 9.632381759006651E+10,      /* J = 36 */
(PID.TID 0000.0001)                 9.538768561539165E+10,      /* J = 37 */
(PID.TID 0000.0001)                 9.422175635109474E+10,      /* J = 38 */
(PID.TID 0000.0001)                 9.282883862289705E+10,      /* J = 39 */
(PID.TID 0000.0001)                 9.121228809161066E+10,      /* J = 40 */
(PID.TID 0000.0001)                 8.937599916905872E+10,      /* J = 41 */
(PID.TID 0000.0001)                 8.732439563609566E+10,      /* J = 42 */
(PID.TID 0000.0001)                 8.506241998533159E+10,      /* J = 43 */
(PID.TID 0000.0001)                 8.259552151423444E+10,      /* J = 44 */
(PID.TID 0000.0001)                 7.992964319729683E+10,      /* J = 45 */
(PID.TID 0000.0001)                 7.707120736888658E+10,      /* J = 46 */
(PID.TID 0000.0001)                 7.402710025128452E+10,      /* J = 47 */
(PID.TID 0000.0001)                 7.080465536516847E+10,      /* J = 48 */
(PID.TID 0000.0001)                 6.741163586252304E+10,      /* J = 49 */
(PID.TID 0000.0001)                 6.385621582452238E+10,      /* J = 50 */
(PID.TID 0000.0001)                 6.014696056945659E+10,      /* J = 51 */
(PID.TID 0000.0001)                 5.629280601812741E+10,      /* J = 52 */
(PID.TID 0000.0001)                 5.230303716643333E+10,      /* J = 53 */
(PID.TID 0000.0001)                 4.818726571700000E+10,      /* J = 54 */
(PID.TID 0000.0001)                 4.395540692374861E+10,      /* J = 55 */
(PID.TID 0000.0001)                 3.961765570517892E+10,      /* J = 56 */
(PID.TID 0000.0001)                 3.518446208391881E+10,      /* J = 57 */
(PID.TID 0000.0001)                 3.066650601170350E+10,      /* J = 58 */
(PID.TID 0000.0001)                 2.607467164043704E+10,      /* J = 59 */
(PID.TID 0000.0001)                 2.142002110131771E+10,      /* J = 60 */
(PID.TID 0000.0001)                 1.671376785519299E+10,      /* J = 61 */
(PID.TID 0000.0001)                 1.196724967835171E+10,      /* J = 62 */
(PID.TID 0000.0001)                 7.191901348828057E+09,      /* J = 63 */
(PID.TID 0000.0001)                 2.399227099019018E+09       /* J = 64 */
(PID.TID 0000.0001)     ;
(PID.TID 0000.0001) rAs =  /* rAs(:,1,:,1) ( m - cartesian, degrees - spherical ) */
(PID.TID 0000.0001)   128 @  0.000000000000000E+00              /* I =  1:128 */
(PID.TID 0000.0001)     ;
(PID.TID 0000.0001) rAs =  /* rAs(1,:,1,:) ( m - cartesian, degrees - spherical ) */
(PID.TID 0000.0001)                 0.000000000000000E+00,      /* J =  1 */
(PID.TID 0000.0001)                 4.797008993346594E+09,      /* J =  2 */
(PID.TID 0000.0001)                 9.582461571859739E+09,      /* J =  3 */
(PID.TID 0000.0001)                 1.434482916112175E+10,      /* J =  4 */
(PID.TID 0000.0001)                 1.907263880047595E+10,      /* J =  5 */
(PID.TID 0000.0001)                 2.375450078239423E+10,      /* J =  6 */
(PID.TID 0000.0001)                 2.837913609127882E+10,      /* J =  7 */
(PID.TID 0000.0001)                 3.293540357560111E+10,      /* J =  8 */
(PID.TID 0000.0001)                 3.741232678790871E+10,      /* J =  9 */
(PID.TID 0000.0001)                 4.179912042805190E+10,      /* J = 10 */
(PID.TID 0000.0001)                 4.608521632591324E+10,      /* J = 11 */
(PID.TID 0000.0001)                 5.026028890105701E+10,      /* J = 12 */
(PID.TID 0000.0001)                 5.431428003795676E+10,      /* J = 13 */
(PID.TID 0000.0001)                 5.823742331687642E+10,      /* J = 14 */
(PID.TID 0000.0001)                 6.202026754202965E+10,      /* J = 15 */
(PID.TID 0000.0001)                 6.565369951034003E+10,      /* J = 16 */
(PID.TID 0000.0001)                 6.912896596594559E+10,      /* J = 17 */
(PID.TID 0000.0001)                 7.243769468755634E+10,      /* J = 18 */
(PID.TID 0000.0001)                 7.557191465787256E+10,      /* J = 19 */
(PID.TID 0000.0001)                 7.852407526645966E+10,      /* J = 20 */
(PID.TID 0000.0001)                 8.128706449983365E+10,      /* J = 21 */
(PID.TID 0000.0001)                 8.385422607492098E+10,      /* J = 22 */
(PID.TID 0000.0001)                 8.621937547463149E+10,      /* J = 23 */
(PID.TID 0000.0001)                 8.837681484689812E+10,      /* J = 24 */
(PID.TID 0000.0001)                 9.032134673130377E+10,      /* J = 25 */
(PID.TID 0000.0001)                 9.204828658021816E+10,      /* J = 26 */
(PID.TID 0000.0001)                 9.355347404428317E+10,      /* J = 27 */
(PID.TID 0000.0001)                 9.483328299505898E+10,      /* J = 28 */
(PID.TID 0000.0001)                 9.588463026068500E+10,      /* J = 29 */
(PID.TID 0000.0001)                 9.670498305351135E+10,      /* J = 30 */
(PID.TID 0000.0001)                 9.729236507180571E+10,      /* J = 31 */
(PID.TID 0000.0001)                 9.764536126083740E+10,      /* J = 32 */
(PID.TID 0000.0001)                 9.776312122186816E+10,      /* J = 33 */
(PID.TID 0000.0001)                 9.764536126083740E+10,      /* J = 34 */
(PID.TID 0000.0001)                 9.729236507180571E+10,      /* J = 35 */
(PID.TID 0000.0001)                 9.670498305351135E+10,      /* J = 36 */
(PID.TID 0000.0001)                 9.588463026068500E+10,      /* J = 37 */
(PID.TID 0000.0001)                 9.483328299505898E+10,      /* J = 38 */
(PID.TID 0000.0001)                 9.355347404428317E+10,      /* J = 39 */
(PID.TID 0000.0001)                 9.204828658021816E+10,      /* J = 40 */
(PID.TID 0000.0001)                 9.032134673130377E+10,      /* J = 41 */
(PID.TID 0000.0001)                 8.837681484689812E+10,      /* J = 42 */
(PID.TID 0000.0001)                 8.621937547463149E+10,      /* J = 43 */
(PID.TID 0000.0001)                 8.385422607492098E+10,      /* J = 44 */
(PID.TID 0000.0001)                 8.128706449983365E+10,      /* J = 45 */
(PID.TID 0000.0001)                 7.852407526645966E+10,      /* J = 46 */
(PID.TID 0000.0001)                 7.557191465787256E+10,      /* J = 47 */
(PID.TID 0000.0001)                 7.243769468755634E+10,      /* J = 48 */
(PID.TID 0000.0001)                 6.912896596594559E+10,      /* J = 49 */
(PID.TID 0000.0001)                 6.565369951034003E+10,      /* J = 50 */
(PID.TID 0000.0001)                 6.202026754202965E+10,      /* J = 51 */
(PID.TID 0000.0001)                 5.823742331687642E+10,      /* J = 52 */
(PID.TID 0000.0001)                 5.431428003795676E+10,      /* J = 53 */
(PID.TID 0000.0001)                 5.026028890105701E+10,      /* J = 54 */
(PID.TID 0000.0001)                 4.608521632591324E+10,      /* J = 55 */
(PID.TID 0000.0001)                 4.179912042805190E+10,      /* J = 56 */
(PID.TID 0000.0001)                 3.741232678790871E+10,      /* J = 57 */
(PID.TID 0000.0001)                 3.293540357560111E+10,      /* J = 58 */
(PID.TID 0000.0001)                 2.837913609127882E+10,      /* J = 59 */
(PID.TID 0000.0001)                 2.375450078239423E+10,      /* J = 60 */
(PID.TID 0000.0001)                 1.907263880047595E+10,      /* J = 61 */
(PID.TID 0000.0001)                 1.434482916112175E+10,      /* J = 62 */
(PID.TID 0000.0001)                 9.582461571859739E+09,      /* J = 63 */
(PID.TID 0000.0001)                 4.797008993346594E+09       /* J = 64 */
(PID.TID 0000.0001)     ;
(PID.TID 0000.0001) 
(PID.TID 0000.0001)  MDSREADFIELD: opening global file: pickup.0000025920
(PID.TID 0000.0001)  MDSREADFIELD: opening global file: pickup.0000025920
(PID.TID 0000.0001)  MDSREADFIELD: opening global file: pickup.0000025920
(PID.TID 0000.0001)  MDSREADFIELD: opening global file: pickup.0000025920
(PID.TID 0000.0001)  MDSREADFIELD: opening global file: pickup.0000025920
(PID.TID 0000.0001)  MDSREADFIELD: opening global file: pickup.0000025920
(PID.TID 0000.0001)  MDSREADFIELD: opening global file: pickup.0000025920
(PID.TID 0000.0001)  MDSREADFIELD: opening global file: pickup.0000025920
(PID.TID 0000.0001)  MDSREADFIELD: opening global file: pickup.0000025920
(PID.TID 0000.0001)  MDSREADFIELD: opening global file: pickup.0000025920
(PID.TID 0000.0001)  MDSREADFIELD: opening global file: pickup.0000025920
(PID.TID 0000.0001)  MDSREADFIELD: opening global file: pickup.0000025920
(PID.TID 0000.0001)  MDSREADFIELD: opening global file: pickup.0000025920
(PID.TID 0000.0001) // =======================================================
(PID.TID 0000.0001) // Model current state
(PID.TID 0000.0001) // =======================================================
(PID.TID 0000.0001) 
(PID.TID 0000.0001) // =======================================================
(PID.TID 0000.0001) // Begin MONITOR dynamic field statistics
(PID.TID 0000.0001) // =======================================================
(PID.TID 0000.0001) %MON time_tsnumber                =                 25920
(PID.TID 0000.0001) %MON time_secondsf                =   7.7760000000000E+06
(PID.TID 0000.0001) %MON time_secondsi                =               7776000
(PID.TID 0000.0001) %MON dynstat_eta_max              =   2.8132672879936E+03
(PID.TID 0000.0001) %MON dynstat_eta_min              =  -6.8584202770082E+03
(PID.TID 0000.0001) %MON dynstat_eta_mean             =  -8.2250102589891E+02
(PID.TID 0000.0001) %MON dynstat_eta_sd               =   2.1974450080445E+03
(PID.TID 0000.0001) %MON dynstat_uvel_max             =   7.9058253282348E+01
(PID.TID 0000.0001) %MON dynstat_uvel_min             =  -4.4006160808694E+01
(PID.TID 0000.0001) %MON dynstat_uvel_mean            =   7.9129948905202E+00
(PID.TID 0000.0001) %MON dynstat_uvel_sd              =   1.5738778280521E+01
(PID.TID 0000.0001) %MON dynstat_vvel_max             =   4.0204578699737E+01
(PID.TID 0000.0001) %MON dynstat_vvel_min             =  -3.1373724809627E+01
(PID.TID 0000.0001) %MON dynstat_vvel_mean            =  -2.2527004079666E-02
(PID.TID 0000.0001) %MON dynstat_vvel_sd              =   6.6724654876158E+00
(PID.TID 0000.0001) %MON dynstat_wvel_max             =   0.0000000000000E+00
(PID.TID 0000.0001) %MON dynstat_wvel_min             =   0.0000000000000E+00
(PID.TID 0000.0001) %MON dynstat_wvel_mean            =   0.0000000000000E+00
(PID.TID 0000.0001) %MON dynstat_wvel_sd              =   0.0000000000000E+00
(PID.TID 0000.0001) %MON dynstat_theta_max            =   4.7784318176346E+02
(PID.TID 0000.0001) %MON dynstat_theta_min            =   2.4202283979600E+02
(PID.TID 0000.0001) %MON dynstat_theta_mean           =   3.3416045826584E+02
(PID.TID 0000.0001) %MON dynstat_theta_sd             =   6.2228650415238E+01
(PID.TID 0000.0001) %MON dynstat_salt_max             =   1.6257034529941E+01
(PID.TID 0000.0001) %MON dynstat_salt_min             =  -1.3451612202414E-01
(PID.TID 0000.0001) %MON dynstat_salt_mean            =   2.1454786946585E+00
(PID.TID 0000.0001) %MON dynstat_salt_sd              =   3.4942619205522E+00
(PID.TID 0000.0001) %MON advcfl_uvel_max              =   1.6003643615242E-01
(PID.TID 0000.0001) %MON advcfl_vvel_max              =   3.8573357221919E-02
(PID.TID 0000.0001) %MON advcfl_wvel_max              =   0.0000000000000E+00
(PID.TID 0000.0001) %MON ke_max                       =   3.1647758438577E+03
(PID.TID 0000.0001) %MON ke_mean                      =   1.7586231954310E+02
(PID.TID 0000.0001) // =======================================================
(PID.TID 0000.0001) // End MONITOR dynamic field statistics
(PID.TID 0000.0001) // =======================================================
(PID.TID 0000.0001)  MDSREADFIELD: opening global file: salb.apr.sun.b
(PID.TID 0000.0001)  MDSREADFIELD: opening global file: tsurf.apr.sun.b
(PID.TID 0000.0001)  MDSREADFIELD: opening global file: smoist.apr.sun.b
 cg2d: Sum(rhs),rhsMax =  -1.68837671087248E+03  8.05609676299423E+02
(PID.TID 0000.0001)                    cg2d_init_res =    2.00093692017387E+03
(PID.TID 0000.0001)                       cg2d_iters =   121
(PID.TID 0000.0001)                         cg2d_res =    3.51961887394591E-12
(PID.TID 0000.0001) // =======================================================
(PID.TID 0000.0001) // Begin MONITOR dynamic field statistics
(PID.TID 0000.0001) // =======================================================
(PID.TID 0000.0001) %MON time_tsnumber                =                 25921
(PID.TID 0000.0001) %MON time_secondsf                =   7.7763000000000E+06
(PID.TID 0000.0001) %MON time_secondsi                =               7776300
(PID.TID 0000.0001) %MON dynstat_eta_max              =   2.8404892472215E+03
(PID.TID 0000.0001) %MON dynstat_eta_min              =  -6.8526608024057E+03
(PID.TID 0000.0001) %MON dynstat_eta_mean             =  -8.2252902794282E+02
(PID.TID 0000.0001) %MON dynstat_eta_sd               =   2.1989793711413E+03
(PID.TID 0000.0001) %MON dynstat_uvel_max             =   7.9034156397947E+01
(PID.TID 0000.0001) %MON dynstat_uvel_min             =  -4.4024503913450E+01
(PID.TID 0000.0001) %MON dynstat_uvel_mean            =   7.9137686922022E+00
(PID.TID 0000.0001) %MON dynstat_uvel_sd              =   1.5738624280286E+01
(PID.TID 0000.0001) %MON dynstat_vvel_max             =   4.0193663463522E+01
(PID.TID 0000.0001) %MON dynstat_vvel_min             =  -3.1404266913728E+01
(PID.TID 0000.0001) %MON dynstat_vvel_mean            =  -2.1871938189373E-02
(PID.TID 0000.0001) %MON dynstat_vvel_sd              =   6.6706583293253E+00
(PID.TID 0000.0001) %MON dynstat_wvel_max             =   1.4282507909756E+00
(PID.TID 0000.0001) %MON dynstat_wvel_min             =  -5.7179506551879E+00
(PID.TID 0000.0001) %MON dynstat_wvel_mean            =   3.5728834818788E-04
(PID.TID 0000.0001) %MON dynstat_wvel_sd              =   1.0446580469973E-01
(PID.TID 0000.0001) %MON dynstat_theta_max            =   4.7784655260606E+02
(PID.TID 0000.0001) %MON dynstat_theta_min            =   2.4203029572529E+02
(PID.TID 0000.0001) %MON dynstat_theta_mean           =   3.3416104275538E+02
(PID.TID 0000.0001) %MON dynstat_theta_sd             =   6.2228084174181E+01
(PID.TID 0000.0001) %MON dynstat_salt_max             =   1.6239164307160E+01
(PID.TID 0000.0001) %MON dynstat_salt_min             =  -1.3453519513134E-01
(PID.TID 0000.0001) %MON dynstat_salt_mean            =   2.1456671540093E+00
(PID.TID 0000.0001) %MON dynstat_salt_sd              =   3.4944012268051E+00
(PID.TID 0000.0001) %MON advcfl_uvel_max              =   1.7080583059034E-01
(PID.TID 0000.0001) %MON advcfl_vvel_max              =   3.8562884849884E-02
(PID.TID 0000.0001) %MON advcfl_wvel_max              =   6.2377643511140E-02
(PID.TID 0000.0001) %MON ke_max                       =   3.1630597568829E+03
(PID.TID 0000.0001) %MON ke_mean                      =   1.7585421818112E+02
(PID.TID 0000.0001) // =======================================================
(PID.TID 0000.0001) // End MONITOR dynamic field statistics
(PID.TID 0000.0001) // =======================================================
 cg2d: Sum(rhs),rhsMax =  -1.69466994350165E+03  7.34581120947826E+02
(PID.TID 0000.0001)                    cg2d_init_res =    6.29878336970772E+02
(PID.TID 0000.0001)                       cg2d_iters =   116
(PID.TID 0000.0001)                         cg2d_res =    3.02720856022263E-12
(PID.TID 0000.0001) // =======================================================
(PID.TID 0000.0001) // Begin MONITOR dynamic field statistics
(PID.TID 0000.0001) // =======================================================
(PID.TID 0000.0001) %MON time_tsnumber                =                 25922
(PID.TID 0000.0001) %MON time_secondsf                =   7.7766000000000E+06
(PID.TID 0000.0001) %MON time_secondsi                =               7776600
(PID.TID 0000.0001) %MON dynstat_eta_max              =   2.8655479311290E+03
(PID.TID 0000.0001) %MON dynstat_eta_min              =  -6.8499463857598E+03
(PID.TID 0000.0001) %MON dynstat_eta_mean             =  -8.2266570749438E+02
(PID.TID 0000.0001) %MON dynstat_eta_sd               =   2.2002868705026E+03
(PID.TID 0000.0001) %MON dynstat_uvel_max             =   7.9012181958253E+01
(PID.TID 0000.0001) %MON dynstat_uvel_min             =  -4.4036210372460E+01
(PID.TID 0000.0001) %MON dynstat_uvel_mean            =   7.9142312239925E+00
(PID.TID 0000.0001) %MON dynstat_uvel_sd              =   1.5738837481853E+01
(PID.TID 0000.0001) %MON dynstat_vvel_max             =   4.0178119264891E+01
(PID.TID 0000.0001) %MON dynstat_vvel_min             =  -3.1432455308611E+01
(PID.TID 0000.0001) %MON dynstat_vvel_mean            =  -2.1245534244442E-02
(PID.TID 0000.0001) %MON dynstat_vvel_sd              =   6.6690074326904E+00
(PID.TID 0000.0001) %MON dynstat_wvel_max             =   2.8696006736877E+00
(PID.TID 0000.0001) %MON dynstat_wvel_min             =  -1.2599996579797E+00
(PID.TID 0000.0001) %MON dynstat_wvel_mean            =   9.9781131265127E-04
(PID.TID 0000.0001) %MON dynstat_wvel_sd              =   8.6551669157379E-02
(PID.TID 0000.0001) %MON dynstat_theta_max            =   4.7784989782495E+02
(PID.TID 0000.0001) %MON dynstat_theta_min            =   2.4204918994633E+02
(PID.TID 0000.0001) %MON dynstat_theta_mean           =   3.3416162804265E+02
(PID.TID 0000.0001) %MON dynstat_theta_sd             =   6.2227339053530E+01
(PID.TID 0000.0001) %MON dynstat_salt_max             =   1.6221304233759E+01
(PID.TID 0000.0001) %MON dynstat_salt_min             =  -1.3465384329445E-01
(PID.TID 0000.0001) %MON dynstat_salt_mean            =   2.1458131403718E+00
(PID.TID 0000.0001) %MON dynstat_salt_sd              =   3.4945569443242E+00
(PID.TID 0000.0001) %MON advcfl_uvel_max              =   1.7250795658256E-01
(PID.TID 0000.0001) %MON advcfl_vvel_max              =   3.8547971326451E-02
(PID.TID 0000.0001) %MON advcfl_wvel_max              =   6.1012468894987E-02
(PID.TID 0000.0001) %MON ke_max                       =   3.1613456277207E+03
(PID.TID 0000.0001) %MON ke_mean                      =   1.7585043231107E+02
(PID.TID 0000.0001) // =======================================================
(PID.TID 0000.0001) // End MONITOR dynamic field statistics
(PID.TID 0000.0001) // =======================================================
 cg2d: Sum(rhs),rhsMax =  -1.70093735003178E+03  7.34433144525234E+02
(PID.TID 0000.0001)                    cg2d_init_res =    2.93493348454885E+02
(PID.TID 0000.0001)                       cg2d_iters =   115
(PID.TID 0000.0001)                         cg2d_res =    2.75988943892000E-12
(PID.TID 0000.0001) // =======================================================
(PID.TID 0000.0001) // Begin MONITOR dynamic field statistics
(PID.TID 0000.0001) // =======================================================
(PID.TID 0000.0001) %MON time_tsnumber                =                 25923
(PID.TID 0000.0001) %MON time_secondsf                =   7.7769000000000E+06
(PID.TID 0000.0001) %MON time_secondsi                =               7776900
(PID.TID 0000.0001) %MON dynstat_eta_max              =   2.8808168302022E+03
(PID.TID 0000.0001) %MON dynstat_eta_min              =  -6.8475300678662E+03
(PID.TID 0000.0001) %MON dynstat_eta_mean             =  -8.2282804749651E+02
(PID.TID 0000.0001) %MON dynstat_eta_sd               =   2.2014003207892E+03
(PID.TID 0000.0001) %MON dynstat_uvel_max             =   7.8990688740307E+01
(PID.TID 0000.0001) %MON dynstat_uvel_min             =  -4.4048896677306E+01
(PID.TID 0000.0001) %MON dynstat_uvel_mean            =   7.9147266385892E+00
(PID.TID 0000.0001) %MON dynstat_uvel_sd              =   1.5739064357476E+01
(PID.TID 0000.0001) %MON dynstat_vvel_max             =   4.0158049283092E+01
(PID.TID 0000.0001) %MON dynstat_vvel_min             =  -3.1459120807888E+01
(PID.TID 0000.0001) %MON dynstat_vvel_mean            =  -2.0656581661688E-02
(PID.TID 0000.0001) %MON dynstat_vvel_sd              =   6.6673644012221E+00
(PID.TID 0000.0001) %MON dynstat_wvel_max             =   3.0537892404203E+00
(PID.TID 0000.0001) %MON dynstat_wvel_min             =  -1.7926486356543E+00
(PID.TID 0000.0001) %MON dynstat_wvel_mean            =   7.9066390172034E-04
(PID.TID 0000.0001) %MON dynstat_wvel_sd              =   8.3916928582146E-02
(PID.TID 0000.0001) %MON dynstat_theta_max            =   4.7785298645818E+02
(PID.TID 0000.0001) %MON dynstat_theta_min            =   2.4205799567730E+02
(PID.TID 0000.0001) %MON dynstat_theta_mean           =   3.3416206642704E+02
(PID.TID 0000.0001) %MON dynstat_theta_sd             =   6.2226765071350E+01
(PID.TID 0000.0001) %MON dynstat_salt_max             =   1.6203740395726E+01
(PID.TID 0000.0001) %MON dynstat_salt_min             =  -1.3478705944576E-01
(PID.TID 0000.0001) %MON dynstat_salt_mean            =   2.1460100308780E+00
(PID.TID 0000.0001) %MON dynstat_salt_sd              =   3.4947345167501E+00
(PID.TID 0000.0001) %MON advcfl_uvel_max              =   1.7202173186395E-01
(PID.TID 0000.0001) %MON advcfl_vvel_max              =   3.8528715644576E-02
(PID.TID 0000.0001) %MON advcfl_wvel_max              =   6.3631266384607E-02
(PID.TID 0000.0001) %MON ke_max                       =   3.1596605427782E+03
(PID.TID 0000.0001) %MON ke_mean                      =   1.7584717400996E+02
(PID.TID 0000.0001) // =======================================================
(PID.TID 0000.0001) // End MONITOR dynamic field statistics
(PID.TID 0000.0001) // =======================================================
 cg2d: Sum(rhs),rhsMax =  -1.70718588641066E+03  7.34247350285017E+02
(PID.TID 0000.0001)                    cg2d_init_res =    1.44479688901333E+02
(PID.TID 0000.0001)                       cg2d_iters =   112
(PID.TID 0000.0001)                         cg2d_res =    3.75422020119167E-12
(PID.TID 0000.0001) // =======================================================
(PID.TID 0000.0001) // Begin MONITOR dynamic field statistics
(PID.TID 0000.0001) // =======================================================
(PID.TID 0000.0001) %MON time_tsnumber                =                 25924
(PID.TID 0000.0001) %MON time_secondsf                =   7.7772000000000E+06
(PID.TID 0000.0001) %MON time_secondsi                =               7777200
(PID.TID 0000.0001) %MON dynstat_eta_max              =   2.8879565213190E+03
(PID.TID 0000.0001) %MON dynstat_eta_min              =  -6.8451958497478E+03
(PID.TID 0000.0001) %MON dynstat_eta_mean             =  -8.2299892447639E+02
(PID.TID 0000.0001) %MON dynstat_eta_sd               =   2.2021833734082E+03
(PID.TID 0000.0001) %MON dynstat_uvel_max             =   7.8969270476902E+01
(PID.TID 0000.0001) %MON dynstat_uvel_min             =  -4.4061576563761E+01
(PID.TID 0000.0001) %MON dynstat_uvel_mean            =   7.9152147338002E+00
(PID.TID 0000.0001) %MON dynstat_uvel_sd              =   1.5739367937772E+01
(PID.TID 0000.0001) %MON dynstat_vvel_max             =   4.0132861263476E+01
(PID.TID 0000.0001) %MON dynstat_vvel_min             =  -3.1484287032759E+01
(PID.TID 0000.0001) %MON dynstat_vvel_mean            =  -2.0108496467180E-02
(PID.TID 0000.0001) %MON dynstat_vvel_sd              =   6.6657461207077E+00
(PID.TID 0000.0001) %MON dynstat_wvel_max             =   2.5192630151936E+00
(PID.TID 0000.0001) %MON dynstat_wvel_min             =  -1.9392231599627E+00
(PID.TID 0000.0001) %MON dynstat_wvel_mean            =   6.1460410896638E-04
(PID.TID 0000.0001) %MON dynstat_wvel_sd              =   8.0759833102446E-02
(PID.TID 0000.0001) %MON dynstat_theta_max            =   4.7785629800415E+02
(PID.TID 0000.0001) %MON dynstat_theta_min            =   2.4206512537260E+02
(PID.TID 0000.0001) %MON dynstat_theta_mean           =   3.3416247793898E+02
(PID.TID 0000.0001) %MON dynstat_theta_sd             =   6.2226242616817E+01
(PID.TID 0000.0001) %MON dynstat_salt_max             =   1.6186777543176E+01
(PID.TID 0000.0001) %MON dynstat_salt_min             =  -1.3492244813771E-01
(PID.TID 0000.0001) %MON dynstat_salt_mean            =   2.1462022336533E+00
(PID.TID 0000.0001) %MON dynstat_salt_sd              =   3.4949073951164E+00
(PID.TID 0000.0001) %MON advcfl_uvel_max              =   1.7099464804958E-01
(PID.TID 0000.0001) %MON advcfl_vvel_max              =   3.8504549579173E-02
(PID.TID 0000.0001) %MON advcfl_wvel_max              =   6.4850141549537E-02
(PID.TID 0000.0001) %MON ke_max                       =   3.1579891960012E+03
(PID.TID 0000.0001) %MON ke_mean                      =   1.7584522253960E+02
(PID.TID 0000.0001) // =======================================================
(PID.TID 0000.0001) // End MONITOR dynamic field statistics
(PID.TID 0000.0001) // =======================================================
 cg2d: Sum(rhs),rhsMax =  -1.71342529630238E+03  7.43414123689991E+02
(PID.TID 0000.0001)                    cg2d_init_res =    9.24710630795042E+01
(PID.TID 0000.0001)                       cg2d_iters =   112
(PID.TID 0000.0001)                         cg2d_res =    2.91300176437398E-12
(PID.TID 0000.0001) // =======================================================
(PID.TID 0000.0001) // Begin MONITOR dynamic field statistics
(PID.TID 0000.0001) // =======================================================
(PID.TID 0000.0001) %MON time_tsnumber                =                 25925
(PID.TID 0000.0001) %MON time_secondsf                =   7.7775000000000E+06
(PID.TID 0000.0001) %MON time_secondsi                =               7777500
(PID.TID 0000.0001) %MON dynstat_eta_max              =   2.8898528591295E+03
(PID.TID 0000.0001) %MON dynstat_eta_min              =  -6.8427629842856E+03
(PID.TID 0000.0001) %MON dynstat_eta_mean             =  -8.2316911461107E+02
(PID.TID 0000.0001) %MON dynstat_eta_sd               =   2.2027568883254E+03
(PID.TID 0000.0001) %MON dynstat_uvel_max             =   7.8948045068732E+01
(PID.TID 0000.0001) %MON dynstat_uvel_min             =  -4.4073806174417E+01
(PID.TID 0000.0001) %MON dynstat_uvel_mean            =   7.9156974462905E+00
(PID.TID 0000.0001) %MON dynstat_uvel_sd              =   1.5739736481320E+01
(PID.TID 0000.0001) %MON dynstat_vvel_max             =   4.0102416447990E+01
(PID.TID 0000.0001) %MON dynstat_vvel_min             =  -3.1507688770716E+01
(PID.TID 0000.0001) %MON dynstat_vvel_mean            =  -1.9598655364912E-02
(PID.TID 0000.0001) %MON dynstat_vvel_sd              =   6.6641476220292E+00
(PID.TID 0000.0001) %MON dynstat_wvel_max             =   2.2746803445430E+00
(PID.TID 0000.0001) %MON dynstat_wvel_min             =  -2.0025032761064E+00
(PID.TID 0000.0001) %MON dynstat_wvel_mean            =   4.8034750408389E-04
(PID.TID 0000.0001) %MON dynstat_wvel_sd              =   7.9117504061825E-02
(PID.TID 0000.0001) %MON dynstat_theta_max            =   4.7785966592482E+02
(PID.TID 0000.0001) %MON dynstat_theta_min            =   2.4207109851957E+02
(PID.TID 0000.0001) %MON dynstat_theta_mean           =   3.3416286642598E+02
(PID.TID 0000.0001) %MON dynstat_theta_sd             =   6.2225769877226E+01
(PID.TID 0000.0001) %MON dynstat_salt_max             =   1.6170496909795E+01
(PID.TID 0000.0001) %MON dynstat_salt_min             =  -1.3507472963732E-01
(PID.TID 0000.0001) %MON dynstat_salt_mean            =   2.1467247518451E+00
(PID.TID 0000.0001) %MON dynstat_salt_sd              =   3.4952477155014E+00
(PID.TID 0000.0001) %MON advcfl_uvel_max              =   1.7019066116848E-01
(PID.TID 0000.0001) %MON advcfl_vvel_max              =   3.8475340002024E-02
(PID.TID 0000.0001) %MON advcfl_wvel_max              =   6.5260191315443E-02
(PID.TID 0000.0001) %MON ke_max                       =   3.1563342463097E+03
(PID.TID 0000.0001) %MON ke_mean                      =   1.7584437705374E+02
(PID.TID 0000.0001) // =======================================================
(PID.TID 0000.0001) // End MONITOR dynamic field statistics
(PID.TID 0000.0001) // =======================================================
 cg2d: Sum(rhs),rhsMax =  -1.71966368799433E+03  7.53919837914468E+02
(PID.TID 0000.0001)                    cg2d_init_res =    6.50770047995931E+01
(PID.TID 0000.0001)                       cg2d_iters =   111
(PID.TID 0000.0001)                         cg2d_res =    4.07853166534904E-12
(PID.TID 0000.0001) // =======================================================
(PID.TID 0000.0001) // Begin MONITOR dynamic field statistics
(PID.TID 0000.0001) // =======================================================
(PID.TID 0000.0001) %MON time_tsnumber                =                 25926
(PID.TID 0000.0001) %MON time_secondsf                =   7.7778000000000E+06
(PID.TID 0000.0001) %MON time_secondsi                =               7777800
(PID.TID 0000.0001) %MON dynstat_eta_max              =   2.8890851893644E+03
(PID.TID 0000.0001) %MON dynstat_eta_min              =  -6.8401501891749E+03
(PID.TID 0000.0001) %MON dynstat_eta_mean             =  -8.2333447312485E+02
(PID.TID 0000.0001) %MON dynstat_eta_sd               =   2.2031752651486E+03
(PID.TID 0000.0001) %MON dynstat_uvel_max             =   7.8927028703093E+01
(PID.TID 0000.0001) %MON dynstat_uvel_min             =  -4.4085222007772E+01
(PID.TID 0000.0001) %MON dynstat_uvel_mean            =   7.9161729574807E+00
(PID.TID 0000.0001) %MON dynstat_uvel_sd              =   1.5740161226732E+01
(PID.TID 0000.0001) %MON dynstat_vvel_max             =   4.0067176575741E+01
(PID.TID 0000.0001) %MON dynstat_vvel_min             =  -3.1529031839593E+01
(PID.TID 0000.0001) %MON dynstat_vvel_mean            =  -1.9128532071386E-02
(PID.TID 0000.0001) %MON dynstat_vvel_sd              =   6.6625591651421E+00
(PID.TID 0000.0001) %MON dynstat_wvel_max             =   2.0853038447509E+00
(PID.TID 0000.0001) %MON dynstat_wvel_min             =  -2.0400435039320E+00
(PID.TID 0000.0001) %MON dynstat_wvel_mean            =   3.8730366827414E-04
(PID.TID 0000.0001) %MON dynstat_wvel_sd              =   7.8410047644533E-02
(PID.TID 0000.0001) %MON dynstat_theta_max            =   4.7786270478810E+02
(PID.TID 0000.0001) %MON dynstat_theta_min            =   2.4207632610072E+02
(PID.TID 0000.0001) %MON dynstat_theta_mean           =   3.3416323703156E+02
(PID.TID 0000.0001) %MON dynstat_theta_sd             =   6.2225342174158E+01
(PID.TID 0000.0001) %MON dynstat_salt_max             =   1.6154978423553E+01
(PID.TID 0000.0001) %MON dynstat_salt_min             =  -1.3526106782617E-01
(PID.TID 0000.0001) %MON dynstat_salt_mean            =   2.1465817469077E+00
(PID.TID 0000.0001) %MON dynstat_salt_sd              =   3.4952607658780E+00
(PID.TID 0000.0001) %MON advcfl_uvel_max              =   1.6984780609115E-01
(PID.TID 0000.0001) %MON advcfl_vvel_max              =   3.8441529918081E-02
(PID.TID 0000.0001) %MON advcfl_wvel_max              =   6.6178687517493E-02
(PID.TID 0000.0001) %MON ke_max                       =   3.1546974796383E+03
(PID.TID 0000.0001) %MON ke_mean                      =   1.7584442288048E+02
(PID.TID 0000.0001) // =======================================================
(PID.TID 0000.0001) // End MONITOR dynamic field statistics
(PID.TID 0000.0001) // =======================================================
 cg2d: Sum(rhs),rhsMax =  -1.72590737596293E+03  7.61676222370909E+02
(PID.TID 0000.0001)                    cg2d_init_res =    5.14966877909004E+01
(PID.TID 0000.0001)                       cg2d_iters =   106
(PID.TID 0000.0001)                         cg2d_res =    3.93290980951020E-12
(PID.TID 0000.0001) // =======================================================
(PID.TID 0000.0001) // Begin MONITOR dynamic field statistics
(PID.TID 0000.0001) // =======================================================
(PID.TID 0000.0001) %MON time_tsnumber                =                 25927
(PID.TID 0000.0001) %MON time_secondsf                =   7.7781000000000E+06
(PID.TID 0000.0001) %MON time_secondsi                =               7778100
(PID.TID 0000.0001) %MON dynstat_eta_max              =   2.8874526003655E+03
(PID.TID 0000.0001) %MON dynstat_eta_min              =  -6.8373438585099E+03
(PID.TID 0000.0001) %MON dynstat_eta_mean             =  -8.2349449956609E+02
(PID.TID 0000.0001) %MON dynstat_eta_sd               =   2.2034914258330E+03
(PID.TID 0000.0001) %MON dynstat_uvel_max             =   7.8906144497174E+01
(PID.TID 0000.0001) %MON dynstat_uvel_min             =  -4.4104038437646E+01
(PID.TID 0000.0001) %MON dynstat_uvel_mean            =   7.9166425042265E+00
(PID.TID 0000.0001) %MON dynstat_uvel_sd              =   1.5740628874041E+01
(PID.TID 0000.0001) %MON dynstat_vvel_max             =   4.0027666442107E+01
(PID.TID 0000.0001) %MON dynstat_vvel_min             =  -3.1548117987412E+01
(PID.TID 0000.0001) %MON dynstat_vvel_mean            =  -1.8704401913686E-02
(PID.TID 0000.0001) %MON dynstat_vvel_sd              =   6.6609745403757E+00
(PID.TID 0000.0001) %MON dynstat_wvel_max             =   1.9515942276075E+00
(PID.TID 0000.0001) %MON dynstat_wvel_min             =  -2.0799116124998E+00
(PID.TID 0000.0001) %MON dynstat_wvel_mean            =   3.2338405448559E-04
(PID.TID 0000.0001) %MON dynstat_wvel_sd              =   7.8235111133703E-02
(PID.TID 0000.0001) %MON dynstat_theta_max            =   4.7786553924279E+02
(PID.TID 0000.0001) %MON dynstat_theta_min            =   2.4208121596985E+02
(PID.TID 0000.0001) %MON dynstat_theta_mean           =   3.3416362545775E+02
(PID.TID 0000.0001) %MON dynstat_theta_sd             =   6.2224936253651E+01
(PID.TID 0000.0001) %MON dynstat_salt_max             =   1.6139767764419E+01
(PID.TID 0000.0001) %MON dynstat_salt_min             =  -1.3548794376340E-01
(PID.TID 0000.0001) %MON dynstat_salt_mean            =   2.1470956950835E+00
(PID.TID 0000.0001) %MON dynstat_salt_sd              =   3.4955891191584E+00
(PID.TID 0000.0001) %MON advcfl_uvel_max              =   1.6997230654244E-01
(PID.TID 0000.0001) %MON advcfl_vvel_max              =   3.8403622830186E-02
(PID.TID 0000.0001) %MON advcfl_wvel_max              =   6.7531351655489E-02
(PID.TID 0000.0001) %MON ke_max                       =   3.1530753512987E+03
(PID.TID 0000.0001) %MON ke_mean                      =   1.7584512149158E+02
(PID.TID 0000.0001) // =======================================================
(PID.TID 0000.0001) // End MONITOR dynamic field statistics
(PID.TID 0000.0001) // =======================================================
 cg2d: Sum(rhs),rhsMax =  -1.73215993468551E+03  7.65064504829545E+02
(PID.TID 0000.0001)                    cg2d_init_res =    4.59544086685388E+01
(PID.TID 0000.0001)                       cg2d_iters =   111
(PID.TID 0000.0001)                         cg2d_res =    3.24095944136760E-12
(PID.TID 0000.0001) // =======================================================
(PID.TID 0000.0001) // Begin MONITOR dynamic field statistics
(PID.TID 0000.0001) // =======================================================
(PID.TID 0000.0001) %MON time_tsnumber                =                 25928
(PID.TID 0000.0001) %MON time_secondsf                =   7.7784000000000E+06
(PID.TID 0000.0001) %MON time_secondsi                =               7778400
(PID.TID 0000.0001) %MON dynstat_eta_max              =   2.8859334686100E+03
(PID.TID 0000.0001) %MON dynstat_eta_min              =  -6.8342861253225E+03
(PID.TID 0000.0001) %MON dynstat_eta_mean             =  -8.2365114538253E+02
(PID.TID 0000.0001) %MON dynstat_eta_sd               =   2.2037459540394E+03
(PID.TID 0000.0001) %MON dynstat_uvel_max             =   7.8885333554374E+01
(PID.TID 0000.0001) %MON dynstat_uvel_min             =  -4.4137277865634E+01
(PID.TID 0000.0001) %MON dynstat_uvel_mean            =   7.9171065416774E+00
(PID.TID 0000.0001) %MON dynstat_uvel_sd              =   1.5741126670331E+01
(PID.TID 0000.0001) %MON dynstat_vvel_max             =   3.9984119838468E+01
(PID.TID 0000.0001) %MON dynstat_vvel_min             =  -3.1564830123987E+01
(PID.TID 0000.0001) %MON dynstat_vvel_mean            =  -1.8335678910848E-02
(PID.TID 0000.0001) %MON dynstat_vvel_sd              =   6.6593913086068E+00
(PID.TID 0000.0001) %MON dynstat_wvel_max             =   1.8452424587194E+00
(PID.TID 0000.0001) %MON dynstat_wvel_min             =  -2.1253409880407E+00
(PID.TID 0000.0001) %MON dynstat_wvel_mean            =   2.7770339609927E-04
(PID.TID 0000.0001) %MON dynstat_wvel_sd              =   7.8289190591173E-02
(PID.TID 0000.0001) %MON dynstat_theta_max            =   4.7786827335149E+02
(PID.TID 0000.0001) %MON dynstat_theta_min            =   2.4208614136666E+02
(PID.TID 0000.0001) %MON dynstat_theta_mean           =   3.3416400609812E+02
(PID.TID 0000.0001) %MON dynstat_theta_sd             =   6.2224558753895E+01
(PID.TID 0000.0001) %MON dynstat_salt_max             =   1.6124772591237E+01
(PID.TID 0000.0001) %MON dynstat_salt_min             =  -1.3575070194113E-01
(PID.TID 0000.0001) %MON dynstat_salt_mean            =   2.1472745463180E+00
(PID.TID 0000.0001) %MON dynstat_salt_sd              =   3.4957501876134E+00
(PID.TID 0000.0001) %MON advcfl_uvel_max              =   1.7042614788979E-01
(PID.TID 0000.0001) %MON advcfl_vvel_max              =   3.8361843044095E-02
(PID.TID 0000.0001) %MON advcfl_wvel_max              =   6.9025501009833E-02
(PID.TID 0000.0001) %MON ke_max                       =   3.1514640529963E+03
(PID.TID 0000.0001) %MON ke_mean                      =   1.7584626133686E+02
(PID.TID 0000.0001) // =======================================================
(PID.TID 0000.0001) // End MONITOR dynamic field statistics
(PID.TID 0000.0001) // =======================================================
 cg2d: Sum(rhs),rhsMax =  -1.73842260685984E+03  7.65623070619216E+02
(PID.TID 0000.0001)                    cg2d_init_res =    4.31383758663810E+01
(PID.TID 0000.0001)                       cg2d_iters =   111
(PID.TID 0000.0001)                         cg2d_res =    2.93743239609965E-12
(PID.TID 0000.0001) // =======================================================
(PID.TID 0000.0001) // Begin MONITOR dynamic field statistics
(PID.TID 0000.0001) // =======================================================
(PID.TID 0000.0001) %MON time_tsnumber                =                 25929
(PID.TID 0000.0001) %MON time_secondsf                =   7.7787000000000E+06
(PID.TID 0000.0001) %MON time_secondsi                =               7778700
(PID.TID 0000.0001) %MON dynstat_eta_max              =   2.8848659872174E+03
(PID.TID 0000.0001) %MON dynstat_eta_min              =  -6.8308998637039E+03
(PID.TID 0000.0001) %MON dynstat_eta_mean             =  -8.2380770677630E+02
(PID.TID 0000.0001) %MON dynstat_eta_sd               =   2.2039704670051E+03
(PID.TID 0000.0001) %MON dynstat_uvel_max             =   7.8864572064219E+01
(PID.TID 0000.0001) %MON dynstat_uvel_min             =  -4.4168694889837E+01
(PID.TID 0000.0001) %MON dynstat_uvel_mean            =   7.9175647525489E+00
(PID.TID 0000.0001) %MON dynstat_uvel_sd              =   1.5741641838160E+01
(PID.TID 0000.0001) %MON dynstat_vvel_max             =   3.9936461592446E+01
(PID.TID 0000.0001) %MON dynstat_vvel_min             =  -3.1579087661622E+01
(PID.TID 0000.0001) %MON dynstat_vvel_mean            =  -1.8031953055019E-02
(PID.TID 0000.0001) %MON dynstat_vvel_sd              =   6.6578112914837E+00
(PID.TID 0000.0001) %MON dynstat_wvel_max             =   1.7595991797283E+00
(PID.TID 0000.0001) %MON dynstat_wvel_min             =  -2.1746677607391E+00
(PID.TID 0000.0001) %MON dynstat_wvel_mean            =   2.4133306651487E-04
(PID.TID 0000.0001) %MON dynstat_wvel_sd              =   7.8426215212467E-02
(PID.TID 0000.0001) %MON dynstat_theta_max            =   4.7787095896210E+02
(PID.TID 0000.0001) %MON dynstat_theta_min            =   2.4209135980944E+02
(PID.TID 0000.0001) %MON dynstat_theta_mean           =   3.3416440198701E+02
(PID.TID 0000.0001) %MON dynstat_theta_sd             =   6.2224192717914E+01
(PID.TID 0000.0001) %MON dynstat_salt_max             =   1.6109946812740E+01
(PID.TID 0000.0001) %MON dynstat_salt_min             =  -1.3603983834379E-01
(PID.TID 0000.0001) %MON dynstat_salt_mean            =   2.1474458621461E+00
(PID.TID 0000.0001) %MON dynstat_salt_sd              =   3.4958977422139E+00
(PID.TID 0000.0001) %MON advcfl_uvel_max              =   1.7102565082001E-01
(PID.TID 0000.0001) %MON advcfl_vvel_max              =   3.8316118437400E-02
(PID.TID 0000.0001) %MON advcfl_wvel_max              =   7.0393676364334E-02
(PID.TID 0000.0001) %MON ke_max                       =   3.1498616464418E+03
(PID.TID 0000.0001) %MON ke_mean                      =   1.7584765207456E+02
(PID.TID 0000.0001) // =======================================================
(PID.TID 0000.0001) // End MONITOR dynamic field statistics
(PID.TID 0000.0001) // =======================================================
 cg2d: Sum(rhs),rhsMax =  -1.74469488103167E+03  7.64505325318882E+02
(PID.TID 0000.0001)                    cg2d_init_res =    4.10760107056467E+01
(PID.TID 0000.0001)                       cg2d_iters =   110
(PID.TID 0000.0001)                         cg2d_res =    3.86637611222781E-12
(PID.TID 0000.0001) // =======================================================
(PID.TID 0000.0001) // Begin MONITOR dynamic field statistics
(PID.TID 0000.0001) // =======================================================
(PID.TID 0000.0001) %MON time_tsnumber                =                 25930
(PID.TID 0000.0001) %MON time_secondsf                =   7.7790000000000E+06
(PID.TID 0000.0001) %MON time_secondsi                =               7779000
(PID.TID 0000.0001) %MON dynstat_eta_max              =   2.8842002246580E+03
(PID.TID 0000.0001) %MON dynstat_eta_min              =  -6.8271648985008E+03
(PID.TID 0000.0001) %MON dynstat_eta_mean             =  -8.2396784024862E+02
(PID.TID 0000.0001) %MON dynstat_eta_sd               =   2.2041874895927E+03
(PID.TID 0000.0001) %MON dynstat_uvel_max             =   7.8843857780869E+01
(PID.TID 0000.0001) %MON dynstat_uvel_min             =  -4.4197984638142E+01
(PID.TID 0000.0001) %MON dynstat_uvel_mean            =   7.9180159702607E+00
(PID.TID 0000.0001) %MON dynstat_uvel_sd              =   1.5742163664801E+01
(PID.TID 0000.0001) %MON dynstat_vvel_max             =   3.9884451898729E+01
(PID.TID 0000.0001) %MON dynstat_vvel_min             =  -3.1590833928039E+01
(PID.TID 0000.0001) %MON dynstat_vvel_mean            =  -1.7800097563211E-02
(PID.TID 0000.0001) %MON dynstat_vvel_sd              =   6.6562363078923E+00
(PID.TID 0000.0001) %MON dynstat_wvel_max             =   1.6875189743940E+00
(PID.TID 0000.0001) %MON dynstat_wvel_min             =  -2.2242470870608E+00
(PID.TID 0000.0001) %MON dynstat_wvel_mean            =   2.0825471947143E-04
(PID.TID 0000.0001) %MON dynstat_wvel_sd              =   7.8585562391096E-02
(PID.TID 0000.0001) %MON dynstat_theta_max            =   4.7787360982992E+02
(PID.TID 0000.0001) %MON dynstat_theta_min            =   2.4209697539393E+02
(PID.TID 0000.0001) %MON dynstat_theta_mean           =   3.3416477451691E+02
(PID.TID 0000.0001) %MON dynstat_theta_sd             =   6.2223852762152E+01
(PID.TID 0000.0001) %MON dynstat_salt_max             =   1.6095280134423E+01
(PID.TID 0000.0001) %MON dynstat_salt_min             =  -1.3634657851472E-01
(PID.TID 0000.0001) %MON dynstat_salt_mean            =   2.1476205511887E+00
(PID.TID 0000.0001) %MON dynstat_salt_sd              =   3.4960570330275E+00
(PID.TID 0000.0001) %MON advcfl_uvel_max              =   1.7160484780498E-01
(PID.TID 0000.0001) %MON advcfl_vvel_max              =   3.8266218934417E-02
(PID.TID 0000.0001) %MON advcfl_wvel_max              =   7.1527194985230E-02
(PID.TID 0000.0001) %MON ke_max                       =   3.1482676833563E+03
(PID.TID 0000.0001) %MON ke_mean                      =   1.7584912887047E+02
(PID.TID 0000.0001) // =======================================================
(PID.TID 0000.0001) // End MONITOR dynamic field statistics
(PID.TID 0000.0001) // =======================================================
(PID.TID 0000.0001)  Seconds in section "ALL                [THE_MODEL_MAIN]":
(PID.TID 0000.0001)          User time:   19.22999977134168
(PID.TID 0000.0001)        System time:  0.1099999994039536
(PID.TID 0000.0001)    Wall clock time:   19.39227700233459
(PID.TID 0000.0001)         No. starts:           1
(PID.TID 0000.0001)          No. stops:           1
(PID.TID 0000.0001)  Seconds in section "INITIALISE_FIXED   [THE_MODEL_MAIN]":
(PID.TID 0000.0001)          User time:  0.1699999924749136
(PID.TID 0000.0001)        System time:  3.9999999105930328E-002
(PID.TID 0000.0001)    Wall clock time:  0.2281479835510254
(PID.TID 0000.0001)         No. starts:           1
(PID.TID 0000.0001)          No. stops:           1
(PID.TID 0000.0001)  Seconds in section "THE_MAIN_LOOP      [THE_MODEL_MAIN]":
(PID.TID 0000.0001)          User time:   19.01999886333942
(PID.TID 0000.0001)        System time:  5.9999994933605194E-002
(PID.TID 0000.0001)    Wall clock time:   19.11538898944855
(PID.TID 0000.0001)         No. starts:           1
(PID.TID 0000.0001)          No. stops:           1
(PID.TID 0000.0001)  Seconds in section "INITIALISE_VARIA    [THE_MAIN_LOOP]":
(PID.TID 0000.0001)          User time:  0.1499999910593033
(PID.TID 0000.0001)        System time:  1.9999999552965164E-002
(PID.TID 0000.0001)    Wall clock time:  0.1725770235061646
(PID.TID 0000.0001)         No. starts:           1
(PID.TID 0000.0001)          No. stops:           1
(PID.TID 0000.0001)  Seconds in section "WRITE_STATE         [THE_MAIN_LOOP]":
(PID.TID 0000.0001)          User time:  1.0000020265579224E-002
(PID.TID 0000.0001)        System time:  1.0000001639127731E-002
(PID.TID 0000.0001)    Wall clock time:  2.0797967910766602E-002
(PID.TID 0000.0001)         No. starts:           1
(PID.TID 0000.0001)          No. stops:           1
(PID.TID 0000.0001)  Seconds in section "MONITOR             [THE_MAIN_LOOP]":
(PID.TID 0000.0001)          User time:  3.9999991655349731E-002
(PID.TID 0000.0001)        System time:  0.0000000000000000E+000
(PID.TID 0000.0001)    Wall clock time:  3.5676002502441406E-002
(PID.TID 0000.0001)         No. starts:           1
(PID.TID 0000.0001)          No. stops:           1
(PID.TID 0000.0001)  Seconds in section "MAIN LOOP           [THE_MAIN_LOOP]":
(PID.TID 0000.0001)          User time:   18.81999886035919
(PID.TID 0000.0001)        System time:  2.9999993741512299E-002
(PID.TID 0000.0001)    Wall clock time:   18.88573098182678
(PID.TID 0000.0001)         No. starts:           1
(PID.TID 0000.0001)          No. stops:           1
(PID.TID 0000.0001)  Seconds in section "EXTERNAL_FIELDS_LOAD[THE_MAIN_LOOP]":
(PID.TID 0000.0001)          User time:  0.0000000000000000E+000
(PID.TID 0000.0001)        System time:  0.0000000000000000E+000
(PID.TID 0000.0001)    Wall clock time:  4.3151378631591797E-003
(PID.TID 0000.0001)         No. starts:          10
(PID.TID 0000.0001)          No. stops:          10
(PID.TID 0000.0001)  Seconds in section "DYNAMICS            [THE_MAIN_LOOP]":
(PID.TID 0000.0001)          User time:   9.570000052452087
(PID.TID 0000.0001)        System time:  1.9999995827674866E-002
(PID.TID 0000.0001)    Wall clock time:   9.605510115623474
(PID.TID 0000.0001)         No. starts:          10
(PID.TID 0000.0001)          No. stops:          10
(PID.TID 0000.0001)  Seconds in section "AIM_DO_ATMOS_PHYS      [DYNAMICS]":
(PID.TID 0000.0001)          User time:   3.939997345209122
(PID.TID 0000.0001)        System time:  9.9999979138374329E-003
(PID.TID 0000.0001)    Wall clock time:   3.952203869819641
(PID.TID 0000.0001)         No. starts:          10
(PID.TID 0000.0001)          No. stops:          10
(PID.TID 0000.0001)  Seconds in section "SOLVE_FOR_PRESSURE  [THE_MAIN_LOOP]":
(PID.TID 0000.0001)          User time:   5.469998717308044
(PID.TID 0000.0001)        System time:  0.0000000000000000E+000
(PID.TID 0000.0001)    Wall clock time:   5.492157936096191
(PID.TID 0000.0001)         No. starts:          10
(PID.TID 0000.0001)          No. stops:          10
(PID.TID 0000.0001)  Seconds in section "THE_CORRECTION_STEP [THE_MAIN_LOOP]":
(PID.TID 0000.0001)          User time:   3.340001463890076
(PID.TID 0000.0001)        System time:  0.0000000000000000E+000
(PID.TID 0000.0001)    Wall clock time:   3.323910117149353
(PID.TID 0000.0001)         No. starts:          10
(PID.TID 0000.0001)          No. stops:          10
(PID.TID 0000.0001)  Seconds in section "BLOCKING_EXCHANGES  [THE_MAIN_LOOP]":
(PID.TID 0000.0001)          User time:  1.9999980926513672E-002
(PID.TID 0000.0001)        System time:  0.0000000000000000E+000
(PID.TID 0000.0001)    Wall clock time:  3.3845901489257813E-002
(PID.TID 0000.0001)         No. starts:          10
(PID.TID 0000.0001)          No. stops:          10
(PID.TID 0000.0001)  Seconds in section "DO_THE_MODEL_IO     [THE_MAIN_LOOP]":
(PID.TID 0000.0001)          User time:  1.9998550415039063E-002
(PID.TID 0000.0001)        System time:  9.9999979138374329E-003
(PID.TID 0000.0001)    Wall clock time:  2.8128862380981445E-002
(PID.TID 0000.0001)         No. starts:          10
(PID.TID 0000.0001)          No. stops:          10
(PID.TID 0000.0001)  Seconds in section "WRITE_CHECKPOINT    [THE_MAIN_LOOP]":
(PID.TID 0000.0001)          User time:  1.0000228881835938E-002
(PID.TID 0000.0001)        System time:  0.0000000000000000E+000
(PID.TID 0000.0001)    Wall clock time:  1.1926889419555664E-003
(PID.TID 0000.0001)         No. starts:          10
(PID.TID 0000.0001)          No. stops:          10
(PID.TID 0000.0001)  Seconds in section "WRITE_CHECKPOINT   [THE_MODEL_MAIN]":
(PID.TID 0000.0001)          User time:  4.0000915527343750E-002
(PID.TID 0000.0001)        System time:  1.0000005364418030E-002
(PID.TID 0000.0001)    Wall clock time:  4.8248052597045898E-002
(PID.TID 0000.0001)         No. starts:           1
(PID.TID 0000.0001)          No. stops:           1
(PID.TID 0000.0001) // ======================================================
(PID.TID 0000.0001) // Tile <-> Tile communication statistics
(PID.TID 0000.0001) // ======================================================
(PID.TID 0000.0001) // o Tile number: 000001
(PID.TID 0000.0001) //         No. X exchanges =              0
(PID.TID 0000.0001) //            Max. X spins =              0
(PID.TID 0000.0001) //            Min. X spins =     1000000000
(PID.TID 0000.0001) //          Total. X spins =              0
(PID.TID 0000.0001) //            Avg. X spins =       0.00E+00
(PID.TID 0000.0001) //         No. Y exchanges =              0
(PID.TID 0000.0001) //            Max. Y spins =              0
(PID.TID 0000.0001) //            Min. Y spins =     1000000000
(PID.TID 0000.0001) //          Total. Y spins =              0
(PID.TID 0000.0001) //            Avg. Y spins =       0.00E+00
(PID.TID 0000.0001) // o Thread number: 000001
(PID.TID 0000.0001) //            No. barriers =          15977
(PID.TID 0000.0001) //      Max. barrier spins =              1
(PID.TID 0000.0001) //      Min. barrier spins =              1
(PID.TID 0000.0001) //     Total barrier spins =          15977
(PID.TID 0000.0001) //      Avg. barrier spins =       1.00E+00
