(PID.TID 0000.0001) 
(PID.TID 0000.0001) // ======================================================
(PID.TID 0000.0001) //                      MITgcm UV
(PID.TID 0000.0001) //                      =========
(PID.TID 0000.0001) // ======================================================
(PID.TID 0000.0001) // execution environment starting up...
(PID.TID 0000.0001) // Run starting Wed Apr  1 14:19:48 1998
(PID.TID 0000.0001) // on melville.lcs.mit.edu
(PID.TID 0000.0001) // account cnh
(PID.TID 0000.0001) // MITgcm UV Release: $Name:  $
(PID.TID 0000.0001) 
(PID.TID 0000.0001) // =======================================================
(PID.TID 0000.0001) // Execution Environment parameter file "eedata"
(PID.TID 0000.0001) // =======================================================
(PID.TID 0000.0001) ># Example "eedata" file
(PID.TID 0000.0001) ># Lines beginning "#" are comments
(PID.TID 0000.0001) ># nTx - No. threads per process in X
(PID.TID 0000.0001) ># nTy - No. threads per process in Y
(PID.TID 0000.0001) > &EEPARMS
(PID.TID 0000.0001) > &
(PID.TID 0000.0001) ># Note: Some systems use & as the
(PID.TID 0000.0001) ># namelist terminator. Other systems
(PID.TID 0000.0001) ># use a / character (as shown here).
(PID.TID 0000.0001) 
(PID.TID 0000.0001) // =======================================================
(PID.TID 0000.0001) // Computational Grid Specification ( see files "SIZE.h" )
(PID.TID 0000.0001) //                                  ( and "eedata"       )
(PID.TID 0000.0001) // =======================================================
(PID.TID 0000.0001)      nPx =    1 ; /* No. processes in X */
(PID.TID 0000.0001)      nPy =    1 ; /* No. processes in Y */
(PID.TID 0000.0001)      nSx =    1 ; /* No. tiles in X per process */
(PID.TID 0000.0001)      nSy =    1 ; /* No. tiles in Y per process */
(PID.TID 0000.0001)      sNx =  128 ; /* Tile size in X */
(PID.TID 0000.0001)      sNy =   64 ; /* Tile size in Y */
(PID.TID 0000.0001)      OLx =    3 ; /* Tile overlap distance in X */
(PID.TID 0000.0001)      OLy =    3 ; /* Tile overlap distance in Y */
(PID.TID 0000.0001)      nTx =    1 ; /* No. threads in X per process */
(PID.TID 0000.0001)      nTy =    1 ; /* No. threads in Y per process */
(PID.TID 0000.0001)       Nr =    5 ; /* No. levels in the vertical   */
(PID.TID 0000.0001)       nX =  128 ; /* Total domain size in X ( = nPx*nSx*sNx ) */
(PID.TID 0000.0001)       nY =   64 ; /* Total domain size in Y ( = nPy*nSy*sNy ) */
(PID.TID 0000.0001)   nTiles =    1 ; /* Total no. tiles per process ( = nSx*nSy ) */
(PID.TID 0000.0001)   nProcs =    1 ; /* Total no. processes ( = nPx*nPy ) */
(PID.TID 0000.0001) nThreads =    1 ; /* Total no. threads per process ( = nTx*nTy ) */
(PID.TID 0000.0001) usingMPI =    F ; /* Flag used to control whether MPI is in use */
(PID.TID 0000.0001)                   /*  note: To execute a program with MPI calls */
(PID.TID 0000.0001)                   /*  it must be launched appropriately e.g     */
(PID.TID 0000.0001)                   /*  "mpirun -np 64 ......"                    */
(PID.TID 0000.0001) 
(PID.TID 0000.0001) // ======================================================
(PID.TID 0000.0001) // Mapping of tiles to threads
(PID.TID 0000.0001) // ======================================================
(PID.TID 0000.0001) // -o- Thread   1, tiles (   1:   1,   1:   1)
(PID.TID 0000.0001) 
(PID.TID 0000.0001) // ======================================================
(PID.TID 0000.0001) // Tile <-> Tile connectvity table
(PID.TID 0000.0001) // ======================================================
(PID.TID 0000.0001) // Tile number: 000001 (process no. = 000001)
(PID.TID 0000.0001) //        WEST: Tile = 000001, Process = 000001, Comm = put
(PID.TID 0000.0001) //                bi = 000001, bj = 000001
(PID.TID 0000.0001) //        EAST: Tile = 000001, Process = 000001, Comm = put
(PID.TID 0000.0001) //                bi = 000001, bj = 000001
(PID.TID 0000.0001) //       SOUTH: Tile = 000001, Process = 000001, Comm = put
(PID.TID 0000.0001) //                bi = 000001, bj = 000001
(PID.TID 0000.0001) //       NORTH: Tile = 000001, Process = 000001, Comm = put
(PID.TID 0000.0001) //                bi = 000001, bj = 000001
(PID.TID 0000.0001) 
(PID.TID 0000.0001) // =======================================================
(PID.TID 0000.0001) // Model parameter file "data"
(PID.TID 0000.0001) // =======================================================
(PID.TID 0000.0001) ># ====================
(PID.TID 0000.0001) ># | Model parameters |
(PID.TID 0000.0001) ># ====================
(PID.TID 0000.0001) >#
(PID.TID 0000.0001) ># Continuous equation parameters
(PID.TID 0000.0001) > &PARM01
(PID.TID 0000.0001) > tRef=281.089, 289.321, 307.191, 331.377, 432.413,
(PID.TID 0000.0001) > sRef=5*0.,
(PID.TID 0000.0001) > viscAr=0.E3,
(PID.TID 0000.0001) > viscAh=0.E6,
(PID.TID 0000.0001) > viscA4=0.E17,
(PID.TID 0000.0001) > no_slip_sides=.FALSE.,
(PID.TID 0000.0001) > no_slip_bottom=.FALSE.,
(PID.TID 0000.0001) > diffKhT=0.E3,
(PID.TID 0000.0001) > diffKrT=0.,
(PID.TID 0000.0001) > diffK4T=0.E17,
(PID.TID 0000.0001) > diffKrS=0.E2,
(PID.TID 0000.0001) > diffKhS=0.E3,
(PID.TID 0000.0001) > diffK4S=0.E17,
(PID.TID 0000.0001) > buoyancyRelation='ATMOSPHERIC',
(PID.TID 0000.0001) > eosType='IDEALGAS',
(PID.TID 0000.0001) > Integr_GeoPot=2,
(PID.TID 0000.0001) > gravity=9.81,
(PID.TID 0000.0001) > rhonil=1.0,
(PID.TID 0000.0001) > rhoConst=1.0,
(PID.TID 0000.0001) > rigidLid=.FALSE.,
(PID.TID 0000.0001) > implicitFreeSurface=.TRUE.,
(PID.TID 0000.0001) > exactConserv=.TRUE.,
(PID.TID 0000.0001) >#uniformLin_PhiSurf=.FALSE.,
(PID.TID 0000.0001) > staggerTimeStep=.TRUE.,
(PID.TID 0000.0001) > nonHydrostatic=.FALSE.,
(PID.TID 0000.0001) > readBinaryPrec=64,
(PID.TID 0000.0001) > writeBinaryPrec=64,
(PID.TID 0000.0001) > hFacMin=1.0,
(PID.TID 0000.0001) > saltAdvScheme=3,
(PID.TID 0000.0001) > &
(PID.TID 0000.0001) >
(PID.TID 0000.0001) ># Elliptic solver parameters
(PID.TID 0000.0001) > &PARM02
(PID.TID 0000.0001) > cg2dMaxIters=200,
(PID.TID 0000.0001) >#cg2dTargetResidual=1.E-12,
(PID.TID 0000.0001) > cg2dTargetResWunit=1.E-17,
(PID.TID 0000.0001) > &
(PID.TID 0000.0001) >
(PID.TID 0000.0001) ># Time stepping parameters
(PID.TID 0000.0001) > &PARM03
(PID.TID 0000.0001) > niter0=17280,
(PID.TID 0000.0001) > nTimeSteps=10,
(PID.TID 0000.0001) >#endTime=31104000.,
(PID.TID 0000.0001) > deltaT=450.0,
(PID.TID 0000.0001) > abEps=0.1,
(PID.TID 0000.0001) > cAdjFreq=0.,
(PID.TID 0000.0001) > pChkptFreq=2592000.0,
(PID.TID 0000.0001) > chkptFreq=0.0,
(PID.TID 0000.0001) > dumpFreq=2592000.0,
(PID.TID 0000.0001) > taveFreq=2592000.0,
(PID.TID 0000.0001) >#monitorFreq=86400.0,
(PID.TID 0000.0001) > monitorFreq=1.0,
(PID.TID 0000.0001) > &
(PID.TID 0000.0001) >
(PID.TID 0000.0001) ># Gridding parameters
(PID.TID 0000.0001) > &PARM04
(PID.TID 0000.0001) > usingCartesianGrid=.FALSE.,
(PID.TID 0000.0001) > usingSphericalPolarGrid=.TRUE.,
(PID.TID 0000.0001) > delX=128*2.8125,
(PID.TID 0000.0001) > delY=64*2.8125,
(PID.TID 0000.0001) > delR=1.E4, 2.5E4, 3.E4, 2.E4, 1.5E4,
(PID.TID 0000.0001) > Ro_SeaLevel=1.E5,
(PID.TID 0000.0001) > groundAtK1=.TRUE.,
(PID.TID 0000.0001) > phiMin=-90.,
(PID.TID 0000.0001) > rSphere=6370.E3,
(PID.TID 0000.0001) > &
(PID.TID 0000.0001) >
(PID.TID 0000.0001) ># Input datasets
(PID.TID 0000.0001) > &PARM05
(PID.TID 0000.0001) > topoFile='topo.filt_55.bin',
(PID.TID 0000.0001) > &
(PID.TID 0000.0001) 
(PID.TID 0000.0001) S/R INI_PARMS ; read PARM01 : OK
(PID.TID 0000.0001) S/R INI_PARMS ; read PARM02 : OK
(PID.TID 0000.0001) S/R INI_PARMS ; read PARM03 : OK
(PID.TID 0000.0001) S/R INI_PARMS ; read PARM04 : OK
(PID.TID 0000.0001) S/R INI_PARMS ; read PARM05 : OK
(PID.TID 0000.0001) %MON XC_max                       =   3.5859375000000E+02
(PID.TID 0000.0001) %MON XC_min                       =   1.4062500000000E+00
(PID.TID 0000.0001) %MON XC_mean                      =   1.8000000000000E+02
(PID.TID 0000.0001) %MON XC_sd                        =   1.0391987692599E+02
(PID.TID 0000.0001) %MON XG_max                       =   3.5718750000000E+02
(PID.TID 0000.0001) %MON XG_min                       =   2.8125000000000E+00
(PID.TID 0000.0001) %MON XG_mean                      =   1.8000000000000E+02
(PID.TID 0000.0001) %MON XG_sd                        =   1.0310795313651E+02
(PID.TID 0000.0001) %MON DXC_max                      =   3.1259246843155E+05
(PID.TID 0000.0001) %MON DXC_min                      =   7.6737143816223E+03
(PID.TID 0000.0001) %MON DXC_mean                     =   1.9908248704234E+05
(PID.TID 0000.0001) %MON DXC_sd                       =   9.6190602240068E+04
(PID.TID 0000.0001) %MON DXF_max                      =   3.1259246843155E+05
(PID.TID 0000.0001) %MON DXF_min                      =   7.6737143816223E+03
(PID.TID 0000.0001) %MON DXF_mean                     =   1.9908248704234E+05
(PID.TID 0000.0001) %MON DXF_sd                       =   9.6190602240068E+04
(PID.TID 0000.0001) %MON DXG_max                      =   3.1268664380261E+05
(PID.TID 0000.0001) %MON DXG_min                      =   1.5342806404640E+04
(PID.TID 0000.0001) %MON DXG_mean                     =   2.0218161485138E+05
(PID.TID 0000.0001) %MON DXG_sd                       =   9.3728538420912E+04
(PID.TID 0000.0001) %MON DXV_max                      =   3.1268664380261E+05
(PID.TID 0000.0001) %MON DXV_min                      =   1.5342806404640E+04
(PID.TID 0000.0001) %MON DXV_mean                     =   2.0218161485138E+05
(PID.TID 0000.0001) %MON DXV_sd                       =   9.3728538420912E+04
(PID.TID 0000.0001) %MON YC_max                       =   8.8593750000000E+01
(PID.TID 0000.0001) %MON YC_min                       =  -8.8593750000000E+01
(PID.TID 0000.0001) %MON YC_mean                      =   0.0000000000000E+00
(PID.TID 0000.0001) %MON YC_sd                        =   5.1955180880375E+01
(PID.TID 0000.0001) %MON YG_max                       =   8.7187500000000E+01
(PID.TID 0000.0001) %MON YG_min                       =  -9.0000000000000E+01
(PID.TID 0000.0001) %MON YG_mean                      =  -1.4285714285714E+00
(PID.TID 0000.0001) %MON YG_sd                        =   5.2365595692639E+01
(PID.TID 0000.0001) %MON DYC_max                      =   3.1268664380261E+05
(PID.TID 0000.0001) %MON DYC_min                      =   3.1268664380261E+05
(PID.TID 0000.0001) %MON DYC_mean                     =   3.1268664380263E+05
(PID.TID 0000.0001) %MON DYC_sd                       =   2.4156179279089E-08
(PID.TID 0000.0001) %MON DYF_max                      =   3.1268664380261E+05
(PID.TID 0000.0001) %MON DYF_min                      =   3.1268664380261E+05
(PID.TID 0000.0001) %MON DYF_mean                     =   3.1268664380263E+05
(PID.TID 0000.0001) %MON DYF_sd                       =   2.4156179279089E-08
(PID.TID 0000.0001) %MON DYG_max                      =   3.1268664380261E+05
(PID.TID 0000.0001) %MON DYG_min                      =   3.1268664380261E+05
(PID.TID 0000.0001) %MON DYG_mean                     =   3.1268664380263E+05
(PID.TID 0000.0001) %MON DYG_sd                       =   2.4156179279089E-08
(PID.TID 0000.0001) %MON DYU_max                      =   3.1268664380261E+05
(PID.TID 0000.0001) %MON DYU_min                      =   3.1268664380261E+05
(PID.TID 0000.0001) %MON DYU_mean                     =   3.1268664380263E+05
(PID.TID 0000.0001) %MON DYU_sd                       =   2.4156179279089E-08
(PID.TID 0000.0001) %MON RA_max                       =   9.7733676797555E+10
(PID.TID 0000.0001) %MON RA_min                       =   2.3992270990190E+09
(PID.TID 0000.0001) %MON RA_mean                      =   6.2244185031957E+10
(PID.TID 0000.0001) %MON RA_sd                        =   3.0074496923945E+10
(PID.TID 0000.0001) %MON RAW_max                      =   9.7733676797555E+10
(PID.TID 0000.0001) %MON RAW_min                      =   2.3992270990190E+09
(PID.TID 0000.0001) %MON RAW_mean                     =   6.2244185031957E+10
(PID.TID 0000.0001) %MON RAW_sd                       =   3.0074496923945E+10
(PID.TID 0000.0001) %MON RAS_max                      =   9.7763121221868E+10
(PID.TID 0000.0001) %MON RAS_min                      =   4.7970089933466E+09
(PID.TID 0000.0001) %MON RAS_mean                     =   6.3213143616158E+10
(PID.TID 0000.0001) %MON RAS_sd                       =   2.9304719741649E+10
(PID.TID 0000.0001) %MON RAZ_max                      =   9.7763121221868E+10
(PID.TID 0000.0001) %MON RAZ_min                      =   4.7970089933466E+09
(PID.TID 0000.0001) %MON RAZ_mean                     =   6.3213143616158E+10
(PID.TID 0000.0001) %MON RAZ_sd                       =   2.9304719741649E+10
(PID.TID 0000.0001)  MDSREADFIELD: opening global file: topo.filt_55.bin
INI_P_GROUND: PhiRef/g [m] at Center (integer) and Interface (half-int.) levels:
  K=  0.5  ;  r=  100000.0  ;  phiRef/g=       0.000
  K=  1.0  ;  r=   95000.0  ;  phiRef/g=     418.526
  K=  1.5  ;  r=   90000.0  ;  phiRef/g=    1219.560
  K=  2.0  ;  r=   77500.0  ;  phiRef/g=    2044.053
  K=  2.5  ;  r=   65000.0  ;  phiRef/g=    3664.142
  K=  3.0  ;  r=   50000.0  ;  phiRef/g=    5384.296
  K=  3.5  ;  r=   35000.0  ;  phiRef/g=    7701.142
  K=  4.0  ;  r=   25000.0  ;  phiRef/g=   10200.400
  K=  4.5  ;  r=   15000.0  ;  phiRef/g=   13521.874
  K=  5.0  ;  r=    7500.0  ;  phiRef/g=   17856.056
  K=  5.5  ;  r=       0.0  ;  phiRef/g=   38969.174
(PID.TID 0000.0001) // =======================================================
(PID.TID 0000.0001) // Field Model R_low (ini_masks_etc) at iteration          1
(PID.TID 0000.0001) // CMIN =          1.000000000000000E+32
(PID.TID 0000.0001) // CMAX =         -1.000000000000000E+32
(PID.TID 0000.0001) // CINT =          0.000000000000000E+00
(PID.TID 0000.0001) // SYMBOLS (CMIN->CMAX): -abcdefghijklmnopqrstuvwxyz+
(PID.TID 0000.0001) //                  0.0: .
(PID.TID 0000.0001) // RANGE I (Lo:Hi:Step):(  -2: 131:   1)
(PID.TID 0000.0001) // RANGE J (Lo:Hi:Step):(  67:  -2:  -1)
(PID.TID 0000.0001) // RANGE K (Lo:Hi:Step):(   1:   1:   1)
(PID.TID 0000.0001) // =======================================================
(PID.TID 0000.0001) K =   1
(PID.TID 0000.0001) //                I=7       I=17      I=27      I=37      I=47      I=57      I=67      I=77      I=87      I=97      I=107     I=117     I=127
(PID.TID 0000.0001) // |--J--|**0123456|890123456|890123456|890123456|890123456|890123456|890123456|890123456|890123456|890123456|890123456|890123456|890123456|8901
(PID.TID 0000.0001) //     67 ......................................................................................................................................
(PID.TID 0000.0001) //     66 ......................................................................................................................................
(PID.TID 0000.0001) //     65 ......................................................................................................................................
(PID.TID 0000.0001) //     64 ......................................................................................................................................
(PID.TID 0000.0001) //     63 ......................................................................................................................................
(PID.TID 0000.0001) //     62 ......................................................................................................................................
(PID.TID 0000.0001) //     61 ......................................................................................................................................
(PID.TID 0000.0001) //     60 ......................................................................................................................................
(PID.TID 0000.0001) //     59 ......................................................................................................................................
(PID.TID 0000.0001) //     58 ......................................................................................................................................
(PID.TID 0000.0001) //     57 ......................................................................................................................................
(PID.TID 0000.0001) //     56 ......................................................................................................................................
(PID.TID 0000.0001) //     55 ......................................................................................................................................
(PID.TID 0000.0001) //     54 ......................................................................................................................................
(PID.TID 0000.0001) //     53 ......................................................................................................................................
(PID.TID 0000.0001) //     52 ......................................................................................................................................
(PID.TID 0000.0001) //     51 ......................................................................................................................................
(PID.TID 0000.0001) //     50 ......................................................................................................................................
(PID.TID 0000.0001) //     49 ......................................................................................................................................
(PID.TID 0000.0001) //     48 ......................................................................................................................................
(PID.TID 0000.0001) //     47 ......................................................................................................................................
(PID.TID 0000.0001) //     46 ......................................................................................................................................
(PID.TID 0000.0001) //     45 ......................................................................................................................................
(PID.TID 0000.0001) //     44 ......................................................................................................................................
(PID.TID 0000.0001) //     43 ......................................................................................................................................
(PID.TID 0000.0001) //     42 ......................................................................................................................................
(PID.TID 0000.0001) //     41 ......................................................................................................................................
(PID.TID 0000.0001) //     40 ......................................................................................................................................
(PID.TID 0000.0001) //     39 ......................................................................................................................................
(PID.TID 0000.0001) //     38 ......................................................................................................................................
(PID.TID 0000.0001) //     37 ......................................................................................................................................
(PID.TID 0000.0001) //     36 ......................................................................................................................................
(PID.TID 0000.0001) //     35 ......................................................................................................................................
(PID.TID 0000.0001) //     34 ......................................................................................................................................
(PID.TID 0000.0001) //     33 ......................................................................................................................................
(PID.TID 0000.0001) //     32 ......................................................................................................................................
(PID.TID 0000.0001) //     31 ......................................................................................................................................
(PID.TID 0000.0001) //     30 ......................................................................................................................................
(PID.TID 0000.0001) //     29 ......................................................................................................................................
(PID.TID 0000.0001) //     28 ......................................................................................................................................
(PID.TID 0000.0001) //     27 ......................................................................................................................................
(PID.TID 0000.0001) //     26 ......................................................................................................................................
(PID.TID 0000.0001) //     25 ......................................................................................................................................
(PID.TID 0000.0001) //     24 ......................................................................................................................................
(PID.TID 0000.0001) //     23 ......................................................................................................................................
(PID.TID 0000.0001) //     22 ......................................................................................................................................
(PID.TID 0000.0001) //     21 ......................................................................................................................................
(PID.TID 0000.0001) //     20 ......................................................................................................................................
(PID.TID 0000.0001) //     19 ......................................................................................................................................
(PID.TID 0000.0001) //     18 ......................................................................................................................................
(PID.TID 0000.0001) //     17 ......................................................................................................................................
(PID.TID 0000.0001) //     16 ......................................................................................................................................
(PID.TID 0000.0001) //     15 ......................................................................................................................................
(PID.TID 0000.0001) //     14 ......................................................................................................................................
(PID.TID 0000.0001) //     13 ......................................................................................................................................
(PID.TID 0000.0001) //     12 ......................................................................................................................................
(PID.TID 0000.0001) //     11 ......................................................................................................................................
(PID.TID 0000.0001) //     10 ......................................................................................................................................
(PID.TID 0000.0001) //      9 ......................................................................................................................................
(PID.TID 0000.0001) //      8 ......................................................................................................................................
(PID.TID 0000.0001) //      7 ......................................................................................................................................
(PID.TID 0000.0001) //      6 ......................................................................................................................................
(PID.TID 0000.0001) //      5 ......................................................................................................................................
(PID.TID 0000.0001) //      4 ......................................................................................................................................
(PID.TID 0000.0001) //      3 ......................................................................................................................................
(PID.TID 0000.0001) //      2 ......................................................................................................................................
(PID.TID 0000.0001) //      1 ......................................................................................................................................
(PID.TID 0000.0001) //      0 ......................................................................................................................................
(PID.TID 0000.0001) //     -1 ......................................................................................................................................
(PID.TID 0000.0001) //     -2 ......................................................................................................................................
(PID.TID 0000.0001) // =======================================================
(PID.TID 0000.0001) // END OF FIELD                                          =
(PID.TID 0000.0001) // =======================================================
(PID.TID 0000.0001) 
(PID.TID 0000.0001) // =======================================================
(PID.TID 0000.0001) // Field Model Ro_surf (ini_masks_etc) at iteration          1
(PID.TID 0000.0001) // CMIN =          3.500000000000000E+04
(PID.TID 0000.0001) // CMAX =          1.000000000000000E+05
(PID.TID 0000.0001) // CINT =          2.407407407407407E+03
(PID.TID 0000.0001) // SYMBOLS (CMIN->CMAX): -abcdefghijklmnopqrstuvwxyz+
(PID.TID 0000.0001) //                  0.0: .
(PID.TID 0000.0001) // RANGE I (Lo:Hi:Step):(  -2: 131:   1)
(PID.TID 0000.0001) // RANGE J (Lo:Hi:Step):(  67:  -2:  -1)
(PID.TID 0000.0001) // RANGE K (Lo:Hi:Step):(   1:   1:   1)
(PID.TID 0000.0001) // =======================================================
(PID.TID 0000.0001) K =   1
(PID.TID 0000.0001) //                I=7       I=17      I=27      I=37      I=47      I=57      I=67      I=77      I=87      I=97      I=107     I=117     I=127
(PID.TID 0000.0001) // |--J--|**0123456|890123456|890123456|890123456|890123456|890123456|890123456|890123456|890123456|890123456|890123456|890123456|890123456|8901
(PID.TID 0000.0001) //     67 ......................................................................................................................................
(PID.TID 0000.0001) //     66 ......................................................................................................................................
(PID.TID 0000.0001) //     65 ......................................................................................................................................
(PID.TID 0000.0001) //     64 ++++++++++++++++++++++++++++++++++++++++++++++++++++++++++++++++++++++++++++++++++++++++++++++++++++++++++++++++++++++++++++++++++++++
(PID.TID 0000.0001) //     63 ++++++++++++++++++++++++++++++++++++++++++++++++++++++++++++++++++++++++++++++++++++++++++++++++++++++++++++++++++++++++++++++++++++++
(PID.TID 0000.0001) //     62 ++++++++++++++++++++++++++++++++++wwwwwwwwwwwwwwwwwwwwwwww++++++++++++++++++++++++++++++++++++++++++++++++++++++++++++++++++++++++++++
(PID.TID 0000.0001) //     61 +++++++++++++++++++++++++++++++++wwwwwwwwwwwwwwwlllllllwwwwww++++++++++wwww+++++++++++++++++++++++++++++++++++++++++++++++++++++++++++
(PID.TID 0000.0001) //     60 ++++++++++++++++++++++++++++++++++++wwwwwwwwwwlllllllllllwww+++++++++++wwww+++++++++++++++++++++++++++++++++++++++++++++++++++++++++++
(PID.TID 0000.0001) //     59 +++++++++++++++++++++++++++++++++++wwww+++++++wwllllllllllww+++++++++++++++++++++++++++ww+++++++++++++++ww++++++++++++++++++++++++++++
(PID.TID 0000.0001) //     58 +++++++++++++++++++++++++++++++++++++wwwww+++++wwllllllllww+++++++++++++++++++++++++++++++++++++++++++++ww++++++++++++++++++++++++++++
(PID.TID 0000.0001) //     57 www++++++wwwwwwwwww++wwww+++++++++++++++wwww++++wwlllllwww++++++++++++++wwww++++++++++++++++++++++wwwwwwwww++++wwwwwww+++++++wwwwww+++
(PID.TID 0000.0001) //     56 wwww++++++wwwwwwwwwwwww++wwww+++++++++++++www+++wwllwww++++www+++++++++www++++++++++++++www++++++++wwwwwwwww+++wwwwwwwwwwwwwwwwwwwww++
(PID.TID 0000.0001) //     55 w++++++++++wwwwwwwwwwwwww+++w+++++++++++++ww+++++wllw++++++++++++++++wwww+++++++++++++++w++++++++++wwwwwwww+++++wwwwwwwwwwwwwwwww+++++
(PID.TID 0000.0001) //     54 ++++++++++wwwwwwllwwwwwwwww+www+++++++++ww++++++++ww+++++++++++++++++www+++++++++++++++++++++++++++wwwwwwwwwwwwww++wwwwwwwwww+++++++++
(PID.TID 0000.0001) //     53 +++++++++++w++++++wwwwwwwwwwwww++++++++++++ww++++++++++++++++++++w++++++++++++++++++++++++++++++++++++wwwwwwwwwwwwwww++++++ww+++++++++
(PID.TID 0000.0001) //     52 ++++++++++++++++++++wwwwwwwwww++++++++++wwwww++++++++++++++++++++++++++++++++++++++++++w++++++++++wwwwwwwwwwwwwwwwww+++++++ww+++++++++
(PID.TID 0000.0001) //     51 +++++++++++++++++++++wwwllwwwwww++++++++wwwwww++++++++++++++++++++++++++w++++++++++++++w+++++w++wwlwwwlwwwwwwwwwwwwww+++++++++++++++++
(PID.TID 0000.0001) //     50 ++++++++++++++++++++++wwwwwwwwww++w+++++www++++++++++++++++++++++++++wwwwwww++++++++++++++wwwwwwwlllwllwwwwwwwwwwwwww+++++++++++++++++
(PID.TID 0000.0001) //     49 +++++++++++++++++++++++wwwllwwwwwww++w+++ww++++++++++++++++++++++++wwllwwwwww+++++++++++++++wwwllwwllllwwwwwwww+wwww++++++++++++++++++
(PID.TID 0000.0001) //     48 +++++++++++++++++++++++wwwlllwwww+++++++ww++++++++++++++++++++++w+www+wwwwww+++++lll+++++++wlllllllwwwwwwwwwww++ww+++w++++++++++++++++
(PID.TID 0000.0001) //     47 +++++++++++++++++++++++wwwllllwww+++++ww++++++++++++++++++++++++www++w++w+wwwwwwwlllw+++++wlllllwwwwwlwwwwwwww+ww+++++++++++++++++++++
(PID.TID 0000.0001) //     46 +++++++++++++++++++++++wllllllwww++++ww+++++++++++++++++++++++++www+++++w+w++wwwwllll+wwwwwllllwllllllllwwww++++w+++w+++++++++++++++++
(PID.TID 0000.0001) //     45 ++++++++++++++++++++++++wwwlllww++++ww+++++++++++++++++++++++++++wwwww+++++++++wwwwlllwwwlllll------lllllwww++++++www+++++++++++++++++
(PID.TID 0000.0001) //     44 +++++++++++++++++++++++++wwwwwww++++++++++++++++++++++++++++++++lwwwww+w+++++++wwwwwllwwwlllwlll-lll--llwww+++++++++++++++++++++++++++
(PID.TID 0000.0001) //     43 ++++++++++++++++++++++++++wwlwww+++++++++++++++++++++++++++++++wwwwwwwwww+++++wwwww++lllwwlw++wl---lllllwwwwww++++++++++++++++++++++++
(PID.TID 0000.0001) //     42 ++++++++++++++++++++++++++w+wlww+++++++++++++++++++++++++++++++ww+++wwwwww+ww+wwwwww+wwwwww++w+++wlwwlllwwwwww++++++++++++++++++++++++
(PID.TID 0000.0001) //     41 +++++++++++++++++++++++++++++llw+++++++++++++++++++++++++++++++++++wwwwwwwwww++wwwww+++w+++++wwwww++wwwwwwwwww++++++++++++++++++++++++
(PID.TID 0000.0001) //     40 +++++++++++++++++++++++++++++wllw++++++++++++++++++++++++++++++++++wwwwwwwwww++wwwww+++++++++wwwww++wwwww+++++++++++++++++++++++++++++
(PID.TID 0000.0001) //     39 ++++++++++++++++++++++++++++++wllww++++++w+++++++++++++++++++++++++wwwwwwwwwwwwww+wwwww++++++ww+w++++wwww+++++++++++++++++++++++++++++
(PID.TID 0000.0001) //     38 +++++++++++++++++++++++++++++++++wwww++++++++++++++++++++++++++++++++ww+++wwwwwww+lww++++++++ww+++++++wwww++++w+++++++++++++++++++++++
(PID.TID 0000.0001) //     37 +++++++++++++++++++++++++++++++++++ww+++++++++++++++++++++++++www++++ww++wwwwwwwlww+++++++++++w++++++++++w++++++++++++++++++++++++++++
(PID.TID 0000.0001) //     36 +++++++++++++++++++++++++++++++++++++ww+wwww++++++++++++++++++www++++wwwwwwwwwwwlwwww+++++++++w+++++++++++++++++++++++++++++++++++++++
(PID.TID 0000.0001) //     35 ++++++++++++++++++++++++++++++++++++++wwwl+www++++++++++++++++++++++++wwwwwwwwwwllww+++++++++++++++++++++++++++w++++++++++++++++++++++
(PID.TID 0000.0001) //     34 +++++++++++++++++++++++++++++++++++++++wlw+www++++++++++++++++++++++++wwwwwwwwwwwww++++++++++++++++++w+w+++ww+++++++++++++++++++++++++
(PID.TID 0000.0001) //     33 +++++++++++++++++++++++++++++++++++++++lw++ww++++++++++++++++++++++++++ww++wwwwww+++++++++++++++++++++w++++ww+w+++++++++++++++++++++++
(PID.TID 0000.0001) //     32 ++++++++++++++++++++++++++++++++++++++wl+++++++++++++++++++++++++++++++ww+wwwwwlw++++++++++++++++++++++++++++ww+++w+++++++++++++++++++
(PID.TID 0000.0001) //     31 ++++++++++++++++++++++++++++++++++++++lw++++++++++++++++++++++++++++++++wwwwwwwww++++++++++++++++++++++w++++++w++++wllw+++++++++++++++
(PID.TID 0000.0001) //     30 ++++++++++++++++++++++++++++++++++++++wl++++++++++++ww++++++++++++++++++wwwwwwwww++++++++++++++++++++++++www+++++++++lww++++++++++++++
(PID.TID 0000.0001) //     29 +++++++++++++++++++++++++++++++++++++++lw+++w++ww+wwww++++++++++++++++++wwwwwwwww++++++++++++++++++++++++++++w+w++++++++++++++++++++++
(PID.TID 0000.0001) //     28 +++++++++++++++++++++++++++++++++++++++wllw+wwwwwwwww+++++++++++++++++++wwwwwwwww+++++++++++++++++++++++++++++++++++++++++++++++++++++
(PID.TID 0000.0001) //     27 ++++++++++++++++++++++++++++++++++++++++lllw+wwwwwwww++++++++++++++++++wwwwwwwwww+++w+++++++++++++++++++++++++++++++++++++++++++++++++
(PID.TID 0000.0001) //     26 +++++++++++++++++++++++++++++++++++++++++wllw++wwwwww++++++++++++++++++wwwwwwww++++ww+++++++++++++++++++++++++++w+++++w+++++++++++++++
(PID.TID 0000.0001) //     25 ++++++++++++++++++++++++++++++++++++++++++llw++wwwwww+++++++++++++++++++wwwwwww++++w++++++++++++++++++++++++ww++www+++w+++++++++++++++
(PID.TID 0000.0001) //     24 ++++++++++++++++++++++++++++++++++++++++++llw++wwww+++++++++++++++++++++wwwwwww++++w++++++++++++++++++++++++wwwwwww++++w++++++++++++++
(PID.TID 0000.0001) //     23 ++++++++++++++++++++++++++++++++++++++++++ll++++ww++++++++++++++++++++++wwwwww++++++++++++++++++++++++++++++wwwwwww++++w++++++++++++++
(PID.TID 0000.0001) //     22 ++++++++++++++++++++++++++++++++++++++++++lw++++ww+++++++++++++++++++++++wwwwl+++++++++++++++++++++++++++++++ww+++++++++w+++++++++++++
(PID.TID 0000.0001) //     21 +++++++++++++++++++++++++++++++++++++++++wlw++++++++++++++++++++++++++++++www+++++++++++++++++++++++++++++++++++++++++++w+++++++++++++
(PID.TID 0000.0001) //     20 +++++++++++++++++++++++++++++++++++++++++wlw+++++++++++++++++++++++++++++++++++++++++++++++++++++++++++++++++++++++++++ww+++++++++++++
(PID.TID 0000.0001) //     19 +w+++++++++++++++++++++++++++++++++++++++ww+++++++++++++++++++++++++++++++++++++++++++++++++++++++++++++++++++++++++++ww+++++++++w++++
(PID.TID 0000.0001) //     18 w++++++++++++++++++++++++++++++++++++++++www++++++++++++++++++++++++++++++++++++++++++++++++++++++++++++++++++++++++++++++++++++w+++++
(PID.TID 0000.0001) //     17 +++++++++++++++++++++++++++++++++++++++++ww++++++++++++++++++++++++++++++++++++++++++++++++++++++++++++++++++++++++++++++++++++w++++++
(PID.TID 0000.0001) //     16 ++++++++++++++++++++++++++++++++++++++++www+++++++++++++++++++++++++++++++++++++++++++++++++++++++++++++++++++++++++++++++++++++++++++
(PID.TID 0000.0001) //     15 ++++++++++++++++++++++++++++++++++++++++www+++++++++++++++++++++++++++++++++++++++++++++++++++++++++++++++++++++++++++++++++++++++++++
(PID.TID 0000.0001) //     14 ++++++++++++++++++++++++++++++++++++++++++++++++++++++++++++++++++++++++++++++++++++++++++++++++++++++++++++++++++++++++++++++++++++++
(PID.TID 0000.0001) //     13 ++++++++++++++++++++++++++++++++++++++++++w+++++++++++++++++++++++++++++++++++++++++++++++++++++++++++++++++++++++++++++++++++++++++++
(PID.TID 0000.0001) //     12 ++++++++++++++++++++++++++++++++++++++++++++++++++++++++++++++++++++++++++++++++++++++++++++++++++++++++++++++++++++++++++++++++++++++
(PID.TID 0000.0001) //     11 ++++++++++++++++++++++++++++++++++++++++++++++++++++++++++++++++++++++++++++++++++++++++++++++++++++++++++++++++++++++++++++++++++++++
(PID.TID 0000.0001) //     10 +++++++++++++++++++++++++++++++++++++++++++++w++++++++++++++++++++++++++++++++++++++++++++++++++++++++++++++++++++++++++++++++++++++++
(PID.TID 0000.0001) //      9 +++++++++++++++++++++++++++++++++++++++++++ww+++++++++++++++++++++++++++++++++++++++wwww+++++++++wwwwwwwwwwwwwwwwwwwww++++++++++++++++
(PID.TID 0000.0001) //      8 +++++++++++++++++++++++++++++++++++++++++wwww+++++++++++++++++++++++++++++++++wwwwwlllllllww+wwlllllllllllllllllllllllwwwwww++++++++++
(PID.TID 0000.0001) //      7 +++++++++++++++++++++++++++++++++++++++++wwwww++++++++++++++++wwwwllllllllllllllllllllllllwwwllllllllllllllllllllllllllllllllwww++++++
(PID.TID 0000.0001) //      6 ++++++++++++++++wwwwwwwwwwwwwwwwwwwwwwwwwwwww+++++++++++++++wwlllllllllllllllllllllllllllwwllllllllllllllllllllllllllllllllwww++++++++
(PID.TID 0000.0001) //      5 ++++++++++++wwwwwwwllllwwwwwwwwwwwwwwww++++++++++w+++++wwwwwllllllllllllllllllllllllllllllllllllllllllllllllllllllllllllllllwww+++++++
(PID.TID 0000.0001) //      4 ++++++++++++wwwwwwwwwwwwwwwwwllllllwwwww+++++++wwwwwwwwwwwwwlllllllllllllllllllllllllllllllllllllllllllllllllllllllllllllwwww+++++++++
(PID.TID 0000.0001) //      3 www++++++++++++wwwwwwwwwwwwwllllllwwwwwwwwwwwwwwwwwwwwwwwlllllllllllllllllllllllllllllllllllllllllllllllllllllllllllllllllllllwwwww+++
(PID.TID 0000.0001) //      2 llllllllllllllllllllllllllllllllllwwwwwwwwwwllllllllllllllllllllllllllllllllllllllllllllllllllllllllllllllllllllllllllllllllllllllllll
(PID.TID 0000.0001) //      1 llllllllllllllllllllllllllllllllllllllllllllllllllllllllllllllllllllllllllllllllllllllllllllllllllllllllllllllllllllllllllllllllllllll
(PID.TID 0000.0001) //      0 ......................................................................................................................................
(PID.TID 0000.0001) //     -1 ......................................................................................................................................
(PID.TID 0000.0001) //     -2 ......................................................................................................................................
(PID.TID 0000.0001) // =======================================================
(PID.TID 0000.0001) // END OF FIELD                                          =
(PID.TID 0000.0001) // =======================================================
(PID.TID 0000.0001) 
(PID.TID 0000.0001) // =======================================================
(PID.TID 0000.0001) // Field hFacC at iteration          1
(PID.TID 0000.0001) // CMIN =          1.000000000000000E+00
(PID.TID 0000.0001) // CMAX =          1.000000000000000E+00
(PID.TID 0000.0001) // CINT =          0.000000000000000E+00
(PID.TID 0000.0001) // SYMBOLS (CMIN->CMAX): -abcdefghijklmnopqrstuvwxyz+
(PID.TID 0000.0001) //                  0.0: .
(PID.TID 0000.0001) // RANGE I (Lo:Hi:Step):(  -2: 131:   1)
(PID.TID 0000.0001) // RANGE J (Lo:Hi:Step):(  67:  -2:  -1)
(PID.TID 0000.0001) // RANGE K (Lo:Hi:Step):(   1:   1:   1)
(PID.TID 0000.0001) // =======================================================
(PID.TID 0000.0001) K =   1
(PID.TID 0000.0001) //                I=7       I=17      I=27      I=37      I=47      I=57      I=67      I=77      I=87      I=97      I=107     I=117     I=127
(PID.TID 0000.0001) // |--J--|**0123456|890123456|890123456|890123456|890123456|890123456|890123456|890123456|890123456|890123456|890123456|890123456|890123456|8901
(PID.TID 0000.0001) //     67 ......................................................................................................................................
(PID.TID 0000.0001) //     66 ......................................................................................................................................
(PID.TID 0000.0001) //     65 ......................................................................................................................................
(PID.TID 0000.0001) //     64 --------------------------------------------------------------------------------------------------------------------------------------
(PID.TID 0000.0001) //     63 --------------------------------------------------------------------------------------------------------------------------------------
(PID.TID 0000.0001) //     62 ----------------------------------........................----------------------------------------------------------------------------
(PID.TID 0000.0001) //     61 ---------------------------------............................----------....-----------------------------------------------------------
(PID.TID 0000.0001) //     60 ------------------------------------........................-----------....-----------------------------------------------------------
(PID.TID 0000.0001) //     59 -----------------------------------....-------..............---------------------------..---------------..----------------------------
(PID.TID 0000.0001) //     58 -------------------------------------.....-----............---------------------------------------------..----------------------------
(PID.TID 0000.0001) //     57 ...------..........--....---------------....----..........--------------....----------------------.........----.......-------......---
(PID.TID 0000.0001) //     56 ....------.............--....-------------...---.......----...---------...--------------...--------.........---.....................--
(PID.TID 0000.0001) //     55 .----------..............---.-------------..-----....----------------....---------------.----------........-----.................-----
(PID.TID 0000.0001) //     54 ----------.................-...---------..--------..-----------------...---------------------------..............--..........---------
(PID.TID 0000.0001) //     53 -----------.------.............------------..--------------------.------------------------------------...............------..---------
(PID.TID 0000.0001) //     52 --------------------..........----------.....------------------------------------------.----------..................-------..---------
(PID.TID 0000.0001) //     51 ---------------------...........--------......--------------------------.--------------.-----.--.....................-----------------
(PID.TID 0000.0001) //     50 ----------------------..........--.-----...--------------------------.......--------------...........................-----------------
(PID.TID 0000.0001) //     49 -----------------------............--.---..------------------------..........---------------...................-....------------------
(PID.TID 0000.0001) //     48 -----------------------..........-------..----------------------.-...-......-----...-------...................--..---.----------------
(PID.TID 0000.0001) //     47 -----------------------..........-----..------------------------...--.--.-...........-----....................-..---------------------
(PID.TID 0000.0001) //     46 -----------------------..........----..-------------------------...-----.-.--........-......................----.---.-----------------
(PID.TID 0000.0001) //     45 ------------------------........----..---------------------------.....---------.............................------...-----------------
(PID.TID 0000.0001) //     44 -------------------------.......--------------------------------......-.-------............................---------------------------
(PID.TID 0000.0001) //     43 --------------------------......-------------------------------..........-----.....--.......--................------------------------
(PID.TID 0000.0001) //     42 --------------------------.-....-------------------------------..---......-..-......-......--.---.............------------------------
(PID.TID 0000.0001) //     41 -----------------------------...-----------------------------------..........--.....---.-----.....--..........------------------------
(PID.TID 0000.0001) //     40 -----------------------------....----------------------------------..........--.....---------.....--.....-----------------------------
(PID.TID 0000.0001) //     39 ------------------------------.....------.-------------------------..............-.....------..-.----....-----------------------------
(PID.TID 0000.0001) //     38 ---------------------------------....--------------------------------..---.......-...--------..-------....----.-----------------------
(PID.TID 0000.0001) //     37 -----------------------------------..-------------------------...----..--..........-----------.----------.----------------------------
(PID.TID 0000.0001) //     36 -------------------------------------..-....------------------...----................---------.---------------------------------------
(PID.TID 0000.0001) //     35 --------------------------------------....-...------------------------..............---------------------------.----------------------
(PID.TID 0000.0001) //     34 ---------------------------------------...-...------------------------.............------------------.-.---..-------------------------
(PID.TID 0000.0001) //     33 ---------------------------------------..--..--------------------------..--......---------------------.----..-.-----------------------
(PID.TID 0000.0001) //     32 --------------------------------------..-------------------------------..-.......----------------------------..---.-------------------
(PID.TID 0000.0001) //     31 --------------------------------------..--------------------------------.........----------------------.------.----....---------------
(PID.TID 0000.0001) //     30 --------------------------------------..------------..------------------.........------------------------...---------...--------------
(PID.TID 0000.0001) //     29 ---------------------------------------..---.--..-....------------------.........----------------------------.-.----------------------
(PID.TID 0000.0001) //     28 ---------------------------------------....-.........-------------------.........-----------------------------------------------------
(PID.TID 0000.0001) //     27 ----------------------------------------....-........------------------..........---.-------------------------------------------------
(PID.TID 0000.0001) //     26 -----------------------------------------....--......------------------........----..---------------------------.-----.---------------
(PID.TID 0000.0001) //     25 ------------------------------------------...--......-------------------.......----.------------------------..--...---.---------------
(PID.TID 0000.0001) //     24 ------------------------------------------...--....---------------------.......----.------------------------.......----.--------------
(PID.TID 0000.0001) //     23 ------------------------------------------..----..----------------------......------------------------------.......----.--------------
(PID.TID 0000.0001) //     22 ------------------------------------------..----..-----------------------.....-------------------------------..---------.-------------
(PID.TID 0000.0001) //     21 -----------------------------------------...------------------------------...-------------------------------------------.-------------
(PID.TID 0000.0001) //     20 -----------------------------------------...---------------------------------------------------------------------------..-------------
(PID.TID 0000.0001) //     19 -.---------------------------------------..---------------------------------------------------------------------------..---------.----
(PID.TID 0000.0001) //     18 .----------------------------------------...------------------------------------------------------------------------------------.-----
(PID.TID 0000.0001) //     17 -----------------------------------------..------------------------------------------------------------------------------------.------
(PID.TID 0000.0001) //     16 ----------------------------------------...-------------------------------------------------------------------------------------------
(PID.TID 0000.0001) //     15 ----------------------------------------...-------------------------------------------------------------------------------------------
(PID.TID 0000.0001) //     14 --------------------------------------------------------------------------------------------------------------------------------------
(PID.TID 0000.0001) //     13 ------------------------------------------.-------------------------------------------------------------------------------------------
(PID.TID 0000.0001) //     12 --------------------------------------------------------------------------------------------------------------------------------------
(PID.TID 0000.0001) //     11 --------------------------------------------------------------------------------------------------------------------------------------
(PID.TID 0000.0001) //     10 ---------------------------------------------.----------------------------------------------------------------------------------------
(PID.TID 0000.0001) //      9 -------------------------------------------..---------------------------------------....---------.....................----------------
(PID.TID 0000.0001) //      8 -----------------------------------------....---------------------------------..............-...............................----------
(PID.TID 0000.0001) //      7 -----------------------------------------.....----------------..................................................................------
(PID.TID 0000.0001) //      6 ----------------.............................---------------..................................................................--------
(PID.TID 0000.0001) //      5 ------------...........................----------.-----........................................................................-------
(PID.TID 0000.0001) //      4 ------------............................-------..............................................................................---------
(PID.TID 0000.0001) //      3 ...------------....................................................................................................................---
(PID.TID 0000.0001) //      2 ......................................................................................................................................
(PID.TID 0000.0001) //      1 ......................................................................................................................................
(PID.TID 0000.0001) //      0 ......................................................................................................................................
(PID.TID 0000.0001) //     -1 ......................................................................................................................................
(PID.TID 0000.0001) //     -2 ......................................................................................................................................
(PID.TID 0000.0001) // =======================================================
(PID.TID 0000.0001) // END OF FIELD                                          =
(PID.TID 0000.0001) // =======================================================
(PID.TID 0000.0001) 
(PID.TID 0000.0001) // =======================================================
(PID.TID 0000.0001) // Field hFacW at iteration          1
(PID.TID 0000.0001) // CMIN =          1.000000000000000E+00
(PID.TID 0000.0001) // CMAX =          1.000000000000000E+00
(PID.TID 0000.0001) // CINT =          0.000000000000000E+00
(PID.TID 0000.0001) // SYMBOLS (CMIN->CMAX): -abcdefghijklmnopqrstuvwxyz+
(PID.TID 0000.0001) //                  0.0: .
(PID.TID 0000.0001) // RANGE I (Lo:Hi:Step):(  -2: 131:   1)
(PID.TID 0000.0001) // RANGE J (Lo:Hi:Step):(  67:  -2:  -1)
(PID.TID 0000.0001) // RANGE K (Lo:Hi:Step):(   1:   1:   1)
(PID.TID 0000.0001) // =======================================================
(PID.TID 0000.0001) K =   1
(PID.TID 0000.0001) //                I=7       I=17      I=27      I=37      I=47      I=57      I=67      I=77      I=87      I=97      I=107     I=117     I=127
(PID.TID 0000.0001) // |--J--|**0123456|890123456|890123456|890123456|890123456|890123456|890123456|890123456|890123456|890123456|890123456|890123456|890123456|8901
(PID.TID 0000.0001) //     67 ....-----------.....................................................................................................................--
(PID.TID 0000.0001) //     66 ......................................................................................................................................
(PID.TID 0000.0001) //     65 ......................................................................................................................................
(PID.TID 0000.0001) //     64 --------------------------------------------------------------------------------------------------------------------------------------
(PID.TID 0000.0001) //     63 --------------------------------------------------------------------------------------------------------------------------------------
(PID.TID 0000.0001) //     62 ----------------------------------.........................---------------------------------------------------------------------------
(PID.TID 0000.0001) //     61 ---------------------------------.............................---------.....----------------------------------------------------------
(PID.TID 0000.0001) //     60 ------------------------------------.........................----------.....----------------------------------------------------------
(PID.TID 0000.0001) //     59 -----------------------------------.....------...............--------------------------...--------------...---------------------------
(PID.TID 0000.0001) //     58 -------------------------------------......----.............--------------------------------------------...---------------------------
(PID.TID 0000.0001) //     57 ....-----...........-.....--------------.....---...........-------------.....---------------------..........---........------.......--
(PID.TID 0000.0001) //     56 .....-----..............-.....------------....--........---....--------....-------------....-------..........--......................-
(PID.TID 0000.0001) //     55 ..---------...............--..------------...----.....---------------.....--------------..---------.........----..................----
(PID.TID 0000.0001) //     54 ----------......................--------...-------...----------------....--------------------------...............-...........--------
(PID.TID 0000.0001) //     53 -----------..-----..............-----------...-------------------..-----------------------------------................-----...--------
(PID.TID 0000.0001) //     52 --------------------...........---------......-----------------------------------------..---------...................------...--------
(PID.TID 0000.0001) //     51 ---------------------............-------.......-------------------------..-------------..----..-......................----------------
(PID.TID 0000.0001) //     50 ----------------------...........-..----....-------------------------........-------------............................----------------
(PID.TID 0000.0001) //     49 -----------------------.............-..--...-----------------------...........--------------.........................-----------------
(PID.TID 0000.0001) //     48 -----------------------...........------...---------------------.............----....------....................-...--..---------------
(PID.TID 0000.0001) //     47 -----------------------...........----...-----------------------....-..-..............----........................--------------------
(PID.TID 0000.0001) //     46 -----------------------...........---...------------------------....----....-................................---..--..----------------
(PID.TID 0000.0001) //     45 ------------------------.........---...--------------------------......--------..............................-----....----------------
(PID.TID 0000.0001) //     44 -------------------------........-------------------------------.........------.............................--------------------------
(PID.TID 0000.0001) //     43 --------------------------.......------------------------------...........----......-........-.................-----------------------
(PID.TID 0000.0001) //     42 --------------------------.......------------------------------...--........................-..--..............-----------------------
(PID.TID 0000.0001) //     41 -----------------------------....----------------------------------...........-......--..----......-...........-----------------------
(PID.TID 0000.0001) //     40 -----------------------------.....---------------------------------...........-......--------......-......----------------------------
(PID.TID 0000.0001) //     39 ------------------------------......-----..------------------------.....................-----.....---.....----------------------------
(PID.TID 0000.0001) //     38 ---------------------------------.....-------------------------------...--............-------...------.....---..----------------------
(PID.TID 0000.0001) //     37 -----------------------------------...------------------------....---...-...........----------..---------..---------------------------
(PID.TID 0000.0001) //     36 -------------------------------------........-----------------....---.................--------..--------------------------------------
(PID.TID 0000.0001) //     35 --------------------------------------.........-----------------------...............--------------------------..---------------------
(PID.TID 0000.0001) //     34 ---------------------------------------........-----------------------..............-----------------....--...------------------------
(PID.TID 0000.0001) //     33 ---------------------------------------...-...-------------------------...-.......--------------------..---.....----------------------
(PID.TID 0000.0001) //     32 --------------------------------------...------------------------------...........---------------------------...--..------------------
(PID.TID 0000.0001) //     31 --------------------------------------...-------------------------------..........---------------------..-----..---.....--------------
(PID.TID 0000.0001) //     30 --------------------------------------...-----------...-----------------..........-----------------------....--------....-------------
(PID.TID 0000.0001) //     29 ---------------------------------------...--..-........-----------------..........---------------------------....---------------------
(PID.TID 0000.0001) //     28 ---------------------------------------...............------------------..........----------------------------------------------------
(PID.TID 0000.0001) //     27 ----------------------------------------..............-----------------...........--..------------------------------------------------
(PID.TID 0000.0001) //     26 -----------------------------------------.....-.......-----------------.........---...--------------------------..----..--------------
(PID.TID 0000.0001) //     25 ------------------------------------------....-.......------------------........---..-----------------------...-....--..--------------
(PID.TID 0000.0001) //     24 ------------------------------------------....-.....--------------------........---..-----------------------........---..-------------
(PID.TID 0000.0001) //     23 ------------------------------------------...---...---------------------.......-----------------------------........---..-------------
(PID.TID 0000.0001) //     22 ------------------------------------------...---...----------------------......------------------------------...--------..------------
(PID.TID 0000.0001) //     21 -----------------------------------------....-----------------------------....------------------------------------------..------------
(PID.TID 0000.0001) //     20 -----------------------------------------....--------------------------------------------------------------------------...------------
(PID.TID 0000.0001) //     19 -..--------------------------------------...--------------------------------------------------------------------------...--------..---
(PID.TID 0000.0001) //     18 ..---------------------------------------....-----------------------------------------------------------------------------------..----
(PID.TID 0000.0001) //     17 .----------------------------------------...-----------------------------------------------------------------------------------..-----
(PID.TID 0000.0001) //     16 ----------------------------------------....------------------------------------------------------------------------------------------
(PID.TID 0000.0001) //     15 ----------------------------------------....------------------------------------------------------------------------------------------
(PID.TID 0000.0001) //     14 --------------------------------------------------------------------------------------------------------------------------------------
(PID.TID 0000.0001) //     13 ------------------------------------------..------------------------------------------------------------------------------------------
(PID.TID 0000.0001) //     12 --------------------------------------------------------------------------------------------------------------------------------------
(PID.TID 0000.0001) //     11 --------------------------------------------------------------------------------------------------------------------------------------
(PID.TID 0000.0001) //     10 ---------------------------------------------..---------------------------------------------------------------------------------------
(PID.TID 0000.0001) //      9 -------------------------------------------...--------------------------------------.....--------......................---------------
(PID.TID 0000.0001) //      8 -----------------------------------------.....--------------------------------...............................................---------
(PID.TID 0000.0001) //      7 .----------------------------------------......---------------...................................................................-----
(PID.TID 0000.0001) //      6 ----------------..............................--------------...................................................................-------
(PID.TID 0000.0001) //      5 ------------............................---------..----.........................................................................------
(PID.TID 0000.0001) //      4 ------------.............................------...............................................................................--------
(PID.TID 0000.0001) //      3 ....-----------.....................................................................................................................--
(PID.TID 0000.0001) //      2 ......................................................................................................................................
(PID.TID 0000.0001) //      1 ......................................................................................................................................
(PID.TID 0000.0001) //      0 --------------------------------------------------------------------------------------------------------------------------------------
(PID.TID 0000.0001) //     -1 --------------------------------------------------------------------------------------------------------------------------------------
(PID.TID 0000.0001) //     -2 ----------------------------------.........................---------------------------------------------------------------------------
(PID.TID 0000.0001) // =======================================================
(PID.TID 0000.0001) // END OF FIELD                                          =
(PID.TID 0000.0001) // =======================================================
(PID.TID 0000.0001) 
(PID.TID 0000.0001) // =======================================================
(PID.TID 0000.0001) // Field hFacS at iteration          1
(PID.TID 0000.0001) // CMIN =          1.000000000000000E+00
(PID.TID 0000.0001) // CMAX =          1.000000000000000E+00
(PID.TID 0000.0001) // CINT =          0.000000000000000E+00
(PID.TID 0000.0001) // SYMBOLS (CMIN->CMAX): -abcdefghijklmnopqrstuvwxyz+
(PID.TID 0000.0001) //                  0.0: .
(PID.TID 0000.0001) // RANGE I (Lo:Hi:Step):(  -2: 131:   1)
(PID.TID 0000.0001) // RANGE J (Lo:Hi:Step):(  67:  -2:  -1)
(PID.TID 0000.0001) // RANGE K (Lo:Hi:Step):(   1:   1:   1)
(PID.TID 0000.0001) // =======================================================
(PID.TID 0000.0001) K =   1
(PID.TID 0000.0001) //                I=7       I=17      I=27      I=37      I=47      I=57      I=67      I=77      I=87      I=97      I=107     I=117     I=127
(PID.TID 0000.0001) // |--J--|**0123456|890123456|890123456|890123456|890123456|890123456|890123456|890123456|890123456|890123456|890123456|890123456|890123456|8901
(PID.TID 0000.0001) //     67 ......................................................................................................................................
(PID.TID 0000.0001) //     66 ......................................................................................................................................
(PID.TID 0000.0001) //     65 ......................................................................................................................................
(PID.TID 0000.0001) //     64 --------------------------------------------------------------------------------------------------------------------------------------
(PID.TID 0000.0001) //     63 ----------------------------------........................----------------------------------------------------------------------------
(PID.TID 0000.0001) //     62 ---------------------------------............................----------....-----------------------------------------------------------
(PID.TID 0000.0001) //     61 ---------------------------------............................----------....-----------------------------------------------------------
(PID.TID 0000.0001) //     60 -----------------------------------.........................-----------....------------..---------------..----------------------------
(PID.TID 0000.0001) //     59 -----------------------------------.......----..............---------------------------..---------------..----------------------------
(PID.TID 0000.0001) //     58 ...------..........--....------------.......---............-------------....----------------------.........----.......-------......---
(PID.TID 0000.0001) //     57 ....-----....................-----------.....---..........-...---------.....------------...-------..........---.....................--
(PID.TID 0000.0001) //     56 ....------...................-------------...---.......----...-------.....--------------...--------.........---.....................--
(PID.TID 0000.0001) //     55 .---------.................-...---------....-----....----------------....---------------.----------..............................-----
(PID.TID 0000.0001) //     54 ----------.....................---------..-..-----..-------------.---...---------------------------..........................---------
(PID.TID 0000.0001) //     53 -----------.------.............---------.....--------------------.---------------------.----------...................------..---------
(PID.TID 0000.0001) //     52 --------------------............--------......--------------------------.--------------.-----.--.....................------..---------
(PID.TID 0000.0001) //     51 ---------------------...........--.-----......-----------------------.......-----------.--...........................-----------------
(PID.TID 0000.0001) //     50 ----------------------.............--.--...------------------------..........-------------...........................-----------------
(PID.TID 0000.0001) //     49 -----------------------............--.--...---------------------.-...........----...-------....................-....-.----------------
(PID.TID 0000.0001) //     48 -----------------------..........-----....----------------------.....................-----....................-...---.----------------
(PID.TID 0000.0001) //     47 -----------------------..........----...------------------------...--.--.-...........-........................-..---.-----------------
(PID.TID 0000.0001) //     46 -----------------------..........---...-------------------------......--.-.--...............................----.-...-----------------
(PID.TID 0000.0001) //     45 ------------------------........----..--------------------------......-.-------.............................------...-----------------
(PID.TID 0000.0001) //     44 -------------------------.......-------------------------------..........-----................................------------------------
(PID.TID 0000.0001) //     43 --------------------------......-------------------------------...........-..-......-.......-.................------------------------
(PID.TID 0000.0001) //     42 --------------------------.-....-------------------------------..--..........-......-......--.................------------------------
(PID.TID 0000.0001) //     41 -----------------------------....----------------------------------..........--.....---.-----.....--..........------------------------
(PID.TID 0000.0001) //     40 -----------------------------......------.-------------------------....................------.....--.....-----------------------------
(PID.TID 0000.0001) //     39 ------------------------------.......----.-------------------------..............-.....------..-.----.....----.-----------------------
(PID.TID 0000.0001) //     38 ---------------------------------....-------------------------...----..--............--------..-------....----.-----------------------
(PID.TID 0000.0001) //     37 -----------------------------------....-....------------------...----................---------.----------.----------------------------
(PID.TID 0000.0001) //     36 -------------------------------------.........----------------...----................---------.----------------.----------------------
(PID.TID 0000.0001) //     35 --------------------------------------....-...------------------------..............-----------------.-.---..--.----------------------
(PID.TID 0000.0001) //     34 ---------------------------------------...-...------------------------.............------------------...---..-.-----------------------
(PID.TID 0000.0001) //     33 --------------------------------------...--..--------------------------..-.......---------------------.----....---.-------------------
(PID.TID 0000.0001) //     32 --------------------------------------..-------------------------------..........----------------------.-----..---.....---------------
(PID.TID 0000.0001) //     31 --------------------------------------..------------..------------------.........----------------------.-...--.----.....--------------
(PID.TID 0000.0001) //     30 --------------------------------------...---.--..-....------------------.........------------------------...-.-.-----...--------------
(PID.TID 0000.0001) //     29 ---------------------------------------....-..........------------------.........----------------------------.-.----------------------
(PID.TID 0000.0001) //     28 ---------------------------------------..............------------------..........---.-------------------------------------------------
(PID.TID 0000.0001) //     27 ----------------------------------------.............------------------..........--..---------------------------.-----.---------------
(PID.TID 0000.0001) //     26 -----------------------------------------....--......------------------........----..-----------------------..--...---.---------------
(PID.TID 0000.0001) //     25 ------------------------------------------...--......-------------------.......----.------------------------.......---..--------------
(PID.TID 0000.0001) //     24 ------------------------------------------...--....---------------------.......----.------------------------.......----.--------------
(PID.TID 0000.0001) //     23 ------------------------------------------..----..----------------------......------------------------------.......----..-------------
(PID.TID 0000.0001) //     22 -----------------------------------------...----..-----------------------.....-------------------------------..---------.-------------
(PID.TID 0000.0001) //     21 -----------------------------------------...------------------------------...------------------------------------------..-------------
(PID.TID 0000.0001) //     20 -.---------------------------------------...--------------------------------------------------------------------------...--------.----
(PID.TID 0000.0001) //     19 ..---------------------------------------...--------------------------------------------------------------------------..--------..----
(PID.TID 0000.0001) //     18 .----------------------------------------...-----------------------------------------------------------------------------------..-----
(PID.TID 0000.0001) //     17 ----------------------------------------...------------------------------------------------------------------------------------.------
(PID.TID 0000.0001) //     16 ----------------------------------------...-------------------------------------------------------------------------------------------
(PID.TID 0000.0001) //     15 ----------------------------------------...-------------------------------------------------------------------------------------------
(PID.TID 0000.0001) //     14 ------------------------------------------.-------------------------------------------------------------------------------------------
(PID.TID 0000.0001) //     13 ------------------------------------------.-------------------------------------------------------------------------------------------
(PID.TID 0000.0001) //     12 --------------------------------------------------------------------------------------------------------------------------------------
(PID.TID 0000.0001) //     11 ---------------------------------------------.----------------------------------------------------------------------------------------
(PID.TID 0000.0001) //     10 -------------------------------------------...--------------------------------------....---------.....................----------------
(PID.TID 0000.0001) //      9 -----------------------------------------....---------------------------------..............-...............................----------
(PID.TID 0000.0001) //      8 -----------------------------------------.....----------------..................................................................------
(PID.TID 0000.0001) //      7 ----------------..............................--------------....................................................................------
(PID.TID 0000.0001) //      6 ------------.................................----.-----........................................................................-------
(PID.TID 0000.0001) //      5 ------------............................-------................................................................................-------
(PID.TID 0000.0001) //      4 ...---------.......................................................................................................................---
(PID.TID 0000.0001) //      3 ......................................................................................................................................
(PID.TID 0000.0001) //      2 ......................................................................................................................................
(PID.TID 0000.0001) //      1 ......................................................................................................................................
(PID.TID 0000.0001) //      0 ......................................................................................................................................
(PID.TID 0000.0001) //     -1 ......................................................................................................................................
(PID.TID 0000.0001) //     -2 ......................................................................................................................................
(PID.TID 0000.0001) // =======================================================
(PID.TID 0000.0001) // END OF FIELD                                          =
(PID.TID 0000.0001) // =======================================================
(PID.TID 0000.0001) 
(PID.TID 0000.0001) %MON fCori_max                    =   1.4540029928789E-04
(PID.TID 0000.0001) %MON fCori_min                    =  -1.4540029928789E-04
(PID.TID 0000.0001) %MON fCori_mean                   =  -2.2565487110447E-21
(PID.TID 0000.0001) %MON fCori_sd                     =   1.0284451245737E-04
(PID.TID 0000.0001) %MON fCoriG_max                   =   1.4526891053949E-04
(PID.TID 0000.0001) %MON fCoriG_min                   =  -1.4544410433286E-04
(PID.TID 0000.0001) %MON fCoriG_mean                  =  -2.3086365767121E-06
(PID.TID 0000.0001) %MON fCoriG_sd                    =   1.0363181330709E-04
(PID.TID 0000.0001)  PACKAGES_BOOT: opening data.pkg
(PID.TID 0000.0001)  OPEN_COPY_DATA_FILE: opening file data.pkg
(PID.TID 0000.0001) // =======================================================
(PID.TID 0000.0001) // Parameter file "data.pkg"
(PID.TID 0000.0001) // =======================================================
(PID.TID 0000.0001) ># Packages
(PID.TID 0000.0001) > &PACKAGES
(PID.TID 0000.0001) > useAIM=.TRUE.,
(PID.TID 0000.0001) > useSHAP_FILT=.TRUE.,
(PID.TID 0000.0001) > useZONAL_FILT=.TRUE.,
(PID.TID 0000.0001) > &
(PID.TID 0000.0001) 
(PID.TID 0000.0001)  PACKAGES_BOOT: finished reading data.pkg
(PID.TID 0000.0001)  SHAP_FILT_READPARMS: opening data.shap
(PID.TID 0000.0001)  OPEN_COPY_DATA_FILE: opening file data.shap
(PID.TID 0000.0001) // =======================================================
(PID.TID 0000.0001) // Parameter file "data.shap"
(PID.TID 0000.0001) // =======================================================
(PID.TID 0000.0001) ># Shapiro Filter parameters
(PID.TID 0000.0001) > &SHAP_PARM01
(PID.TID 0000.0001) > shap_filt_uvStar=.FALSE.,
(PID.TID 0000.0001) > shap_filt_TrStagg=.TRUE.,
(PID.TID 0000.0001) > Shap_funct=4,
(PID.TID 0000.0001) > nShapT=0,
(PID.TID 0000.0001) > nShapUV=4,
(PID.TID 0000.0001) >#nShapTrPhys=4,
(PID.TID 0000.0001) >#nShapUVPhys=4,
(PID.TID 0000.0001) >#Shap_TrLength=115000.,
(PID.TID 0000.0001) >#Shap_uvLength=110000.,
(PID.TID 0000.0001) >#Shap_Trtau=3600.,
(PID.TID 0000.0001) >#Shap_uvtau=3600.,
(PID.TID 0000.0001) > &
(PID.TID 0000.0001) >
(PID.TID 0000.0001) 
(PID.TID 0000.0001)  SHAP_FILT_READPARMS: finished reading data.shap
 Shap_funct, nShap_Tr,UV _Phys=           4           0           4           0
            0
 Shap_Trtau,Shap_uvtau=   450.0000000000000        450.0000000000000     
(PID.TID 0000.0001)  ZONAL_FILT_READPARMS: opening data.zonfilt
(PID.TID 0000.0001)  OPEN_COPY_DATA_FILE: opening file data.zonfilt
(PID.TID 0000.0001) // =======================================================
(PID.TID 0000.0001) // Parameter file "data.zonfilt"
(PID.TID 0000.0001) // =======================================================
(PID.TID 0000.0001) ># Zonal Filter parameters
(PID.TID 0000.0001) > &ZONFILT_PARM01
(PID.TID 0000.0001) > zonal_filt_uvStar =.FALSE.,
(PID.TID 0000.0001) > zonal_filt_TrStagg=.FALSE.,
(PID.TID 0000.0001) > zonal_filt_lat=45.,
(PID.TID 0000.0001) > zonal_filt_sinpow=2,
(PID.TID 0000.0001) > zonal_filt_cospow=2,
(PID.TID 0000.0001) > zonal_filt_mode2dx=1,
(PID.TID 0000.0001) > &
(PID.TID 0000.0001) >
(PID.TID 0000.0001) 
(PID.TID 0000.0001)  ZONAL_FILT_READPARMS: finished reading data.zonfilt
(PID.TID 0000.0001) // CG2D normalisation factor =          0.2454122852291226400000000E-06
(PID.TID 0000.0001) 
 ini_cg2d: sumArea,cg2dTolerance =  5.09904363781794E+14  2.78081767031093E-12
(PID.TID 0000.0001) // =======================================================
(PID.TID 0000.0001) // Model configuration
(PID.TID 0000.0001) // =======================================================
(PID.TID 0000.0001) //
(PID.TID 0000.0001) // "Physical" paramters ( PARM01 in namelist )
(PID.TID 0000.0001) //
(PID.TID 0000.0001) tRef =   /* Reference temperature profile ( oC or oK ) */
(PID.TID 0000.0001)                 2.810890000000000E+02,      /* K =  1 */
(PID.TID 0000.0001)                 2.893210000000000E+02,      /* K =  2 */
(PID.TID 0000.0001)                 3.071910000000000E+02,      /* K =  3 */
(PID.TID 0000.0001)                 3.313770000000000E+02,      /* K =  4 */
(PID.TID 0000.0001)                 4.324130000000000E+02       /* K =  5 */
(PID.TID 0000.0001)     ;
(PID.TID 0000.0001) sRef =   /* Reference salinity profile ( ppt ) */
(PID.TID 0000.0001)     5 @  0.000000000000000E+00              /* K =  1:  5 */
(PID.TID 0000.0001)     ;
(PID.TID 0000.0001) viscAh =   /* Lateral eddy viscosity ( m^2/s ) */
(PID.TID 0000.0001)                 0.000000000000000E+00
(PID.TID 0000.0001)     ;
(PID.TID 0000.0001) viscAh =   /* Lateral biharmonic viscosity ( m^4/s ) */
(PID.TID 0000.0001)                 0.000000000000000E+00
(PID.TID 0000.0001)     ;
(PID.TID 0000.0001) no_slip_sides =  /* Viscous BCs: No-slip sides */
(PID.TID 0000.0001)                   F
(PID.TID 0000.0001)     ;
(PID.TID 0000.0001) viscAr =   /* Vertical eddy viscosity ( units of r^2/s ) */
(PID.TID 0000.0001)                 0.000000000000000E+00
(PID.TID 0000.0001)     ;
(PID.TID 0000.0001) diffKhT =   /* Laplacian diffusion of heat laterally ( m^2/s ) */
(PID.TID 0000.0001)                 0.000000000000000E+00
(PID.TID 0000.0001)     ;
(PID.TID 0000.0001) diffK4T =   /* Bihaarmonic diffusion of heat laterally ( m^4/s ) */
(PID.TID 0000.0001)                 0.000000000000000E+00
(PID.TID 0000.0001)     ;
(PID.TID 0000.0001) diffKzT =   /* Laplacian diffusion of heat vertically ( m^2/s ) */
(PID.TID 0000.0001)                 1.234567000000000E+05
(PID.TID 0000.0001)     ;
(PID.TID 0000.0001) diffKrT =   /* Laplacian diffusion of heat vertically ( m^2/s ) */
(PID.TID 0000.0001)                 0.000000000000000E+00
(PID.TID 0000.0001)     ;
(PID.TID 0000.0001) diffKhS =   /* Laplacian diffusion of salt laterally ( m^2/s ) */
(PID.TID 0000.0001)                 0.000000000000000E+00
(PID.TID 0000.0001)     ;
(PID.TID 0000.0001) diffK4S =   /* Bihaarmonic diffusion of salt laterally ( m^4/s ) */
(PID.TID 0000.0001)                 0.000000000000000E+00
(PID.TID 0000.0001)     ;
(PID.TID 0000.0001) diffKzS =   /* Laplacian diffusion of salt vertically ( m^2/s ) */
(PID.TID 0000.0001)                 1.234567000000000E+05
(PID.TID 0000.0001)     ;
(PID.TID 0000.0001) diffKrS =   /* Laplacian diffusion of salt vertically ( m^2/s ) */
(PID.TID 0000.0001)                 0.000000000000000E+00
(PID.TID 0000.0001)     ;
(PID.TID 0000.0001) tAlpha =   /* Linear EOS thermal expansion coefficient ( 1/degree ) */
(PID.TID 0000.0001)                 2.000000000000000E-04
(PID.TID 0000.0001)     ;
(PID.TID 0000.0001) sBeta =   /* Linear EOS haline contraction coefficient ( 1/ppt ) */
(PID.TID 0000.0001)                 7.400000000000001E-04
(PID.TID 0000.0001)     ;
(PID.TID 0000.0001) rhonil =   /* Reference density ( kg/m^3 ) */
(PID.TID 0000.0001)                 1.000000000000000E+00
(PID.TID 0000.0001)     ;
(PID.TID 0000.0001) rhoConst =   /* Reference density ( kg/m^3 ) */
(PID.TID 0000.0001)                 1.000000000000000E+00
(PID.TID 0000.0001)     ;
(PID.TID 0000.0001) gravity =   /* Gravitational acceleration ( m/s^2 ) */
(PID.TID 0000.0001)                 9.810000000000001E+00
(PID.TID 0000.0001)     ;
(PID.TID 0000.0001) gBaro =   /* Barotropic gravity ( m/s^2 ) */
(PID.TID 0000.0001)                 9.810000000000001E+00
(PID.TID 0000.0001)     ;
(PID.TID 0000.0001) f0 =   /* Reference coriolis parameter ( 1/s ) */
(PID.TID 0000.0001)                 1.000000000000000E-04
(PID.TID 0000.0001)     ;
(PID.TID 0000.0001) beta =   /* Beta ( 1/(m.s) ) */
(PID.TID 0000.0001)                 9.999999999999998E-12
(PID.TID 0000.0001)     ;
(PID.TID 0000.0001) freeSurfFac =   /* Implicit free surface factor */
(PID.TID 0000.0001)                 1.000000000000000E+00
(PID.TID 0000.0001)     ;
(PID.TID 0000.0001) implicitFreeSurface =   /* Implicit free surface on/off flag */
(PID.TID 0000.0001)                   T
(PID.TID 0000.0001)     ;
(PID.TID 0000.0001) rigidLid =   /* Rigid lid on/off flag */
(PID.TID 0000.0001)                   F
(PID.TID 0000.0001)     ;
(PID.TID 0000.0001) implicSurfPress =   /* Surface Pressure implicit factor (0-1)*/
(PID.TID 0000.0001)                 1.000000000000000E+00
(PID.TID 0000.0001)     ;
(PID.TID 0000.0001) implicDiv2Dflow =   /* Barot. Flow Div. implicit factor (0-1)*/
(PID.TID 0000.0001)                 1.000000000000000E+00
(PID.TID 0000.0001)     ;
(PID.TID 0000.0001) staggerTimeStep =   /* Stagger time stepping on/off flag */
(PID.TID 0000.0001)                   T
(PID.TID 0000.0001)     ;
(PID.TID 0000.0001) momStepping =  /* Momentum equation on/off flag */
(PID.TID 0000.0001)                   T
(PID.TID 0000.0001)     ;
(PID.TID 0000.0001) momAdvection =  /* Momentum advection on/off flag */
(PID.TID 0000.0001)                   T
(PID.TID 0000.0001)     ;
(PID.TID 0000.0001) momViscosity =  /* Momentum viscosity on/off flag */
(PID.TID 0000.0001)                   T
(PID.TID 0000.0001)     ;
(PID.TID 0000.0001) useCoriolis =  /* Coriolis on/off flag */
(PID.TID 0000.0001)                   T
(PID.TID 0000.0001)     ;
(PID.TID 0000.0001) momForcing =  /* Momentum forcing on/off flag */
(PID.TID 0000.0001)                   T
(PID.TID 0000.0001)     ;
(PID.TID 0000.0001) momPressureForcing =  /* Momentum pressure term on/off flag */
(PID.TID 0000.0001)                   T
(PID.TID 0000.0001)     ;
(PID.TID 0000.0001) tempStepping =  /* Temperature equation on/off flag */
(PID.TID 0000.0001)                   T
(PID.TID 0000.0001)     ;
(PID.TID 0000.0001) nonHydrostatic =  /* Non-Hydrostatic on/off flag */
(PID.TID 0000.0001)                   F
(PID.TID 0000.0001)     ;
(PID.TID 0000.0001) //
(PID.TID 0000.0001) // Elliptic solver(s) paramters ( PARM02 in namelist )
(PID.TID 0000.0001) //
(PID.TID 0000.0001) cg2dMaxIters =   /* Upper limit on 2d con. grad iterations  */
(PID.TID 0000.0001)                     200
(PID.TID 0000.0001)     ;
(PID.TID 0000.0001) cg2dChkResFreq =   /* 2d con. grad convergence test frequency */
(PID.TID 0000.0001)                       1
(PID.TID 0000.0001)     ;
(PID.TID 0000.0001) cg2dTargetResidual =   /* 2d con. grad target residual  */
(PID.TID 0000.0001)                 1.000000000000000E-07
(PID.TID 0000.0001)     ;
(PID.TID 0000.0001) //
(PID.TID 0000.0001) // Time stepping paramters ( PARM03 in namelist )
(PID.TID 0000.0001) //
(PID.TID 0000.0001) nIter0 =   /* Base timestep number  */
(PID.TID 0000.0001)                   17280
(PID.TID 0000.0001)     ;
(PID.TID 0000.0001) nTimeSteps =   /* Number of timesteps */
(PID.TID 0000.0001)                      10
(PID.TID 0000.0001)     ;
(PID.TID 0000.0001) deltatTmom =   /* Momentum equation timestep ( s ) */
(PID.TID 0000.0001)                 4.500000000000000E+02
(PID.TID 0000.0001)     ;
(PID.TID 0000.0001) deltatTtracer =   /* Tracer equation timestep ( s ) */
(PID.TID 0000.0001)                 4.500000000000000E+02
(PID.TID 0000.0001)     ;
(PID.TID 0000.0001) deltatTClock  =   /* Model clock timestep ( s ) */
(PID.TID 0000.0001)                 4.500000000000000E+02
(PID.TID 0000.0001)     ;
(PID.TID 0000.0001) cAdjFreq =   /* Convective adjustment interval ( s ) */
(PID.TID 0000.0001)                 0.000000000000000E+00
(PID.TID 0000.0001)     ;
(PID.TID 0000.0001) abeps =   /* Adams-Bashforth stabilizing weight */
(PID.TID 0000.0001)                 1.000000000000000E-01
(PID.TID 0000.0001)     ;
(PID.TID 0000.0001) tauCD =   /* CD coupling time-scale ( s ) */
(PID.TID 0000.0001)                 4.500000000000000E+02
(PID.TID 0000.0001)     ;
(PID.TID 0000.0001) rCD =   /* Normalised CD coupling parameter */
(PID.TID 0000.0001)                 0.000000000000000E+00
(PID.TID 0000.0001)     ;
(PID.TID 0000.0001) startTime =   /* Run start time ( s ). */
(PID.TID 0000.0001)                 7.776000000000000E+06
(PID.TID 0000.0001)     ;
(PID.TID 0000.0001) endTime =   /* Integration ending time ( s ). */
(PID.TID 0000.0001)                 7.780500000000000E+06
(PID.TID 0000.0001)     ;
(PID.TID 0000.0001) pChkPtFreq =   /* Permanent restart/checkpoint file interval ( s ). */
(PID.TID 0000.0001)                 2.592000000000000E+06
(PID.TID 0000.0001)     ;
(PID.TID 0000.0001) chkPtFreq =   /* Rolling restart/checkpoint file interval ( s ). */
(PID.TID 0000.0001)                 0.000000000000000E+00
(PID.TID 0000.0001)     ;
(PID.TID 0000.0001) dumpFreq =   /* Model state write out interval ( s ). */
(PID.TID 0000.0001)                 2.592000000000000E+06
(PID.TID 0000.0001)     ;
(PID.TID 0000.0001) //
(PID.TID 0000.0001) // Gridding paramters ( PARM04 in namelist )
(PID.TID 0000.0001) //
(PID.TID 0000.0001) usingCartesianGrid =   /* Cartesian coordinates flag ( True / False ) */
(PID.TID 0000.0001)                   F
(PID.TID 0000.0001)     ;
(PID.TID 0000.0001) usingSphericalPolarGrid =   /* Spherical coordinates flag ( True / False ) */
(PID.TID 0000.0001)                   T
(PID.TID 0000.0001)     ;
(PID.TID 0000.0001) groundAtK1 =   /* Lower Boundary (ground) at the surface(k=1) ( T / F ) */
(PID.TID 0000.0001)                   T
(PID.TID 0000.0001)     ;
(PID.TID 0000.0001) Ro_SeaLevel =   /* r(1) ( units of r ) */
(PID.TID 0000.0001)                 1.000000000000000E+05
(PID.TID 0000.0001)     ;
(PID.TID 0000.0001) rkFac =   /* minus Vertical index orientation  */
(PID.TID 0000.0001)                 1.000000000000000E+00
(PID.TID 0000.0001)     ;
(PID.TID 0000.0001) horiVertRatio =   /* Ratio on units : Horiz - Vertical */
(PID.TID 0000.0001)                 9.810000000000001E+00
(PID.TID 0000.0001)     ;
(PID.TID 0000.0001) delZ =   /* W spacing ( m ) */
(PID.TID 0000.0001)     5 @  1.234567000000000E+05              /* K =  1:  5 */
(PID.TID 0000.0001)     ;
(PID.TID 0000.0001) delP =   /* W spacing ( Pa ) */
(PID.TID 0000.0001)     5 @  1.234567000000000E+05              /* K =  1:  5 */
(PID.TID 0000.0001)     ;
(PID.TID 0000.0001) delR =   /* W spacing ( units of r ) */
(PID.TID 0000.0001)                 1.000000000000000E+04,      /* K =  1 */
(PID.TID 0000.0001)                 2.500000000000000E+04,      /* K =  2 */
(PID.TID 0000.0001)                 3.000000000000000E+04,      /* K =  3 */
(PID.TID 0000.0001)                 2.000000000000000E+04,      /* K =  4 */
(PID.TID 0000.0001)                 1.500000000000000E+04       /* K =  5 */
(PID.TID 0000.0001)     ;
(PID.TID 0000.0001) delX =   /* U spacing ( m - cartesian, degrees - spherical ) */
(PID.TID 0000.0001)   128 @  2.812500000000000E+00              /* I =  1:128 */
(PID.TID 0000.0001)     ;
(PID.TID 0000.0001) delY =   /* V spacing ( m - cartesian, degrees - spherical ) */
(PID.TID 0000.0001)    64 @  2.812500000000000E+00              /* J =  1: 64 */
(PID.TID 0000.0001)     ;
(PID.TID 0000.0001) phiMin =    /* South edge (ignored - cartesian, degrees - spherical ) */
(PID.TID 0000.0001)                -9.000000000000000E+01
(PID.TID 0000.0001)     ;
(PID.TID 0000.0001) thetaMin =    /* West edge ( ignored - cartesian, degrees - spherical ) */
(PID.TID 0000.0001)                 0.000000000000000E+00
(PID.TID 0000.0001)     ;
(PID.TID 0000.0001) rSphere =    /* Radius ( ignored - cartesian, m - spherical ) */
(PID.TID 0000.0001)                 6.370000000000000E+06
(PID.TID 0000.0001)     ;
(PID.TID 0000.0001) xcoord =   /* P-point X coord ( m - cartesian, degrees - spherical ) */
(PID.TID 0000.0001)                 1.406250000000000E+00,      /* I =  1 */
(PID.TID 0000.0001)                 4.218750000000000E+00,      /* I =  2 */
(PID.TID 0000.0001)                 7.031250000000000E+00,      /* I =  3 */
(PID.TID 0000.0001)                 9.843750000000000E+00,      /* I =  4 */
(PID.TID 0000.0001)                 1.265625000000000E+01,      /* I =  5 */
(PID.TID 0000.0001)                 1.546875000000000E+01,      /* I =  6 */
(PID.TID 0000.0001)                 1.828125000000000E+01,      /* I =  7 */
(PID.TID 0000.0001)                 2.109375000000000E+01,      /* I =  8 */
(PID.TID 0000.0001)                 2.390625000000000E+01,      /* I =  9 */
(PID.TID 0000.0001)                 2.671875000000000E+01,      /* I = 10 */
(PID.TID 0000.0001)                 2.953125000000000E+01,      /* I = 11 */
(PID.TID 0000.0001)                 3.234375000000000E+01,      /* I = 12 */
(PID.TID 0000.0001)                 3.515625000000000E+01,      /* I = 13 */
(PID.TID 0000.0001)                 3.796875000000000E+01,      /* I = 14 */
(PID.TID 0000.0001)                 4.078125000000000E+01,      /* I = 15 */
(PID.TID 0000.0001)                 4.359375000000000E+01,      /* I = 16 */
(PID.TID 0000.0001)                 4.640625000000000E+01,      /* I = 17 */
(PID.TID 0000.0001)                 4.921875000000000E+01,      /* I = 18 */
(PID.TID 0000.0001)                 5.203125000000000E+01,      /* I = 19 */
(PID.TID 0000.0001)                 5.484375000000000E+01,      /* I = 20 */
(PID.TID 0000.0001)                 5.765625000000000E+01,      /* I = 21 */
(PID.TID 0000.0001)                 6.046875000000000E+01,      /* I = 22 */
(PID.TID 0000.0001)                 6.328125000000000E+01,      /* I = 23 */
(PID.TID 0000.0001)                 6.609375000000000E+01,      /* I = 24 */
(PID.TID 0000.0001)                 6.890625000000000E+01,      /* I = 25 */
(PID.TID 0000.0001)                 7.171875000000000E+01,      /* I = 26 */
(PID.TID 0000.0001)                 7.453125000000000E+01,      /* I = 27 */
(PID.TID 0000.0001)                 7.734375000000000E+01,      /* I = 28 */
(PID.TID 0000.0001)                 8.015625000000000E+01,      /* I = 29 */
(PID.TID 0000.0001)                 8.296875000000000E+01,      /* I = 30 */
(PID.TID 0000.0001)                 8.578125000000000E+01,      /* I = 31 */
(PID.TID 0000.0001)                 8.859375000000000E+01,      /* I = 32 */
(PID.TID 0000.0001)                 9.140625000000000E+01,      /* I = 33 */
(PID.TID 0000.0001)                 9.421875000000000E+01,      /* I = 34 */
(PID.TID 0000.0001)                 9.703125000000000E+01,      /* I = 35 */
(PID.TID 0000.0001)                 9.984375000000000E+01,      /* I = 36 */
(PID.TID 0000.0001)                 1.026562500000000E+02,      /* I = 37 */
(PID.TID 0000.0001)                 1.054687500000000E+02,      /* I = 38 */
(PID.TID 0000.0001)                 1.082812500000000E+02,      /* I = 39 */
(PID.TID 0000.0001)                 1.110937500000000E+02,      /* I = 40 */
(PID.TID 0000.0001)                 1.139062500000000E+02,      /* I = 41 */
(PID.TID 0000.0001)                 1.167187500000000E+02,      /* I = 42 */
(PID.TID 0000.0001)                 1.195312500000000E+02,      /* I = 43 */
(PID.TID 0000.0001)                 1.223437500000000E+02,      /* I = 44 */
(PID.TID 0000.0001)                 1.251562500000000E+02,      /* I = 45 */
(PID.TID 0000.0001)                 1.279687500000000E+02,      /* I = 46 */
(PID.TID 0000.0001)                 1.307812500000000E+02,      /* I = 47 */
(PID.TID 0000.0001)                 1.335937500000000E+02,      /* I = 48 */
(PID.TID 0000.0001)                 1.364062500000000E+02,      /* I = 49 */
(PID.TID 0000.0001)                 1.392187500000000E+02,      /* I = 50 */
(PID.TID 0000.0001)                 1.420312500000000E+02,      /* I = 51 */
(PID.TID 0000.0001)                 1.448437500000000E+02,      /* I = 52 */
(PID.TID 0000.0001)                 1.476562500000000E+02,      /* I = 53 */
(PID.TID 0000.0001)                 1.504687500000000E+02,      /* I = 54 */
(PID.TID 0000.0001)                 1.532812500000000E+02,      /* I = 55 */
(PID.TID 0000.0001)                 1.560937500000000E+02,      /* I = 56 */
(PID.TID 0000.0001)                 1.589062500000000E+02,      /* I = 57 */
(PID.TID 0000.0001)                 1.617187500000000E+02,      /* I = 58 */
(PID.TID 0000.0001)                 1.645312500000000E+02,      /* I = 59 */
(PID.TID 0000.0001)                 1.673437500000000E+02,      /* I = 60 */
(PID.TID 0000.0001)                 1.701562500000000E+02,      /* I = 61 */
(PID.TID 0000.0001)                 1.729687500000000E+02,      /* I = 62 */
(PID.TID 0000.0001)                 1.757812500000000E+02,      /* I = 63 */
(PID.TID 0000.0001)                 1.785937500000000E+02,      /* I = 64 */
(PID.TID 0000.0001)                 1.814062500000000E+02,      /* I = 65 */
(PID.TID 0000.0001)                 1.842187500000000E+02,      /* I = 66 */
(PID.TID 0000.0001)                 1.870312500000000E+02,      /* I = 67 */
(PID.TID 0000.0001)                 1.898437500000000E+02,      /* I = 68 */
(PID.TID 0000.0001)                 1.926562500000000E+02,      /* I = 69 */
(PID.TID 0000.0001)                 1.954687500000000E+02,      /* I = 70 */
(PID.TID 0000.0001)                 1.982812500000000E+02,      /* I = 71 */
(PID.TID 0000.0001)                 2.010937500000000E+02,      /* I = 72 */
(PID.TID 0000.0001)                 2.039062500000000E+02,      /* I = 73 */
(PID.TID 0000.0001)                 2.067187500000000E+02,      /* I = 74 */
(PID.TID 0000.0001)                 2.095312500000000E+02,      /* I = 75 */
(PID.TID 0000.0001)                 2.123437500000000E+02,      /* I = 76 */
(PID.TID 0000.0001)                 2.151562500000000E+02,      /* I = 77 */
(PID.TID 0000.0001)                 2.179687500000000E+02,      /* I = 78 */
(PID.TID 0000.0001)                 2.207812500000000E+02,      /* I = 79 */
(PID.TID 0000.0001)                 2.235937500000000E+02,      /* I = 80 */
(PID.TID 0000.0001)                 2.264062500000000E+02,      /* I = 81 */
(PID.TID 0000.0001)                 2.292187500000000E+02,      /* I = 82 */
(PID.TID 0000.0001)                 2.320312500000000E+02,      /* I = 83 */
(PID.TID 0000.0001)                 2.348437500000000E+02,      /* I = 84 */
(PID.TID 0000.0001)                 2.376562500000000E+02,      /* I = 85 */
(PID.TID 0000.0001)                 2.404687500000000E+02,      /* I = 86 */
(PID.TID 0000.0001)                 2.432812500000000E+02,      /* I = 87 */
(PID.TID 0000.0001)                 2.460937500000000E+02,      /* I = 88 */
(PID.TID 0000.0001)                 2.489062500000000E+02,      /* I = 89 */
(PID.TID 0000.0001)                 2.517187500000000E+02,      /* I = 90 */
(PID.TID 0000.0001)                 2.545312500000000E+02,      /* I = 91 */
(PID.TID 0000.0001)                 2.573437500000000E+02,      /* I = 92 */
(PID.TID 0000.0001)                 2.601562500000000E+02,      /* I = 93 */
(PID.TID 0000.0001)                 2.629687500000000E+02,      /* I = 94 */
(PID.TID 0000.0001)                 2.657812500000000E+02,      /* I = 95 */
(PID.TID 0000.0001)                 2.685937500000000E+02,      /* I = 96 */
(PID.TID 0000.0001)                 2.714062500000000E+02,      /* I = 97 */
(PID.TID 0000.0001)                 2.742187500000000E+02,      /* I = 98 */
(PID.TID 0000.0001)                 2.770312500000000E+02,      /* I = 99 */
(PID.TID 0000.0001)                 2.798437500000000E+02,      /* I =100 */
(PID.TID 0000.0001)                 2.826562500000000E+02,      /* I =101 */
(PID.TID 0000.0001)                 2.854687500000000E+02,      /* I =102 */
(PID.TID 0000.0001)                 2.882812500000000E+02,      /* I =103 */
(PID.TID 0000.0001)                 2.910937500000000E+02,      /* I =104 */
(PID.TID 0000.0001)                 2.939062500000000E+02,      /* I =105 */
(PID.TID 0000.0001)                 2.967187500000000E+02,      /* I =106 */
(PID.TID 0000.0001)                 2.995312500000000E+02,      /* I =107 */
(PID.TID 0000.0001)                 3.023437500000000E+02,      /* I =108 */
(PID.TID 0000.0001)                 3.051562500000000E+02,      /* I =109 */
(PID.TID 0000.0001)                 3.079687500000000E+02,      /* I =110 */
(PID.TID 0000.0001)                 3.107812500000000E+02,      /* I =111 */
(PID.TID 0000.0001)                 3.135937500000000E+02,      /* I =112 */
(PID.TID 0000.0001)                 3.164062500000000E+02,      /* I =113 */
(PID.TID 0000.0001)                 3.192187500000000E+02,      /* I =114 */
(PID.TID 0000.0001)                 3.220312500000000E+02,      /* I =115 */
(PID.TID 0000.0001)                 3.248437500000000E+02,      /* I =116 */
(PID.TID 0000.0001)                 3.276562500000000E+02,      /* I =117 */
(PID.TID 0000.0001)                 3.304687500000000E+02,      /* I =118 */
(PID.TID 0000.0001)                 3.332812500000000E+02,      /* I =119 */
(PID.TID 0000.0001)                 3.360937500000000E+02,      /* I =120 */
(PID.TID 0000.0001)                 3.389062500000000E+02,      /* I =121 */
(PID.TID 0000.0001)                 3.417187500000000E+02,      /* I =122 */
(PID.TID 0000.0001)                 3.445312500000000E+02,      /* I =123 */
(PID.TID 0000.0001)                 3.473437500000000E+02,      /* I =124 */
(PID.TID 0000.0001)                 3.501562500000000E+02,      /* I =125 */
(PID.TID 0000.0001)                 3.529687500000000E+02,      /* I =126 */
(PID.TID 0000.0001)                 3.557812500000000E+02,      /* I =127 */
(PID.TID 0000.0001)                 3.585937500000000E+02       /* I =128 */
(PID.TID 0000.0001)     ;
(PID.TID 0000.0001) ycoord =   /* P-point Y coord ( m - cartesian, degrees - spherical ) */
(PID.TID 0000.0001)                -8.859375000000000E+01,      /* J =  1 */
(PID.TID 0000.0001)                -8.578125000000000E+01,      /* J =  2 */
(PID.TID 0000.0001)                -8.296875000000000E+01,      /* J =  3 */
(PID.TID 0000.0001)                -8.015625000000000E+01,      /* J =  4 */
(PID.TID 0000.0001)                -7.734375000000000E+01,      /* J =  5 */
(PID.TID 0000.0001)                -7.453125000000000E+01,      /* J =  6 */
(PID.TID 0000.0001)                -7.171875000000000E+01,      /* J =  7 */
(PID.TID 0000.0001)                -6.890625000000000E+01,      /* J =  8 */
(PID.TID 0000.0001)                -6.609375000000000E+01,      /* J =  9 */
(PID.TID 0000.0001)                -6.328125000000000E+01,      /* J = 10 */
(PID.TID 0000.0001)                -6.046875000000000E+01,      /* J = 11 */
(PID.TID 0000.0001)                -5.765625000000000E+01,      /* J = 12 */
(PID.TID 0000.0001)                -5.484375000000000E+01,      /* J = 13 */
(PID.TID 0000.0001)                -5.203125000000000E+01,      /* J = 14 */
(PID.TID 0000.0001)                -4.921875000000000E+01,      /* J = 15 */
(PID.TID 0000.0001)                -4.640625000000000E+01,      /* J = 16 */
(PID.TID 0000.0001)                -4.359375000000000E+01,      /* J = 17 */
(PID.TID 0000.0001)                -4.078125000000000E+01,      /* J = 18 */
(PID.TID 0000.0001)                -3.796875000000000E+01,      /* J = 19 */
(PID.TID 0000.0001)                -3.515625000000000E+01,      /* J = 20 */
(PID.TID 0000.0001)                -3.234375000000000E+01,      /* J = 21 */
(PID.TID 0000.0001)                -2.953125000000000E+01,      /* J = 22 */
(PID.TID 0000.0001)                -2.671875000000000E+01,      /* J = 23 */
(PID.TID 0000.0001)                -2.390625000000000E+01,      /* J = 24 */
(PID.TID 0000.0001)                -2.109375000000000E+01,      /* J = 25 */
(PID.TID 0000.0001)                -1.828125000000000E+01,      /* J = 26 */
(PID.TID 0000.0001)                -1.546875000000000E+01,      /* J = 27 */
(PID.TID 0000.0001)                -1.265625000000000E+01,      /* J = 28 */
(PID.TID 0000.0001)                -9.843750000000000E+00,      /* J = 29 */
(PID.TID 0000.0001)                -7.031250000000000E+00,      /* J = 30 */
(PID.TID 0000.0001)                -4.218750000000000E+00,      /* J = 31 */
(PID.TID 0000.0001)                -1.406250000000000E+00,      /* J = 32 */
(PID.TID 0000.0001)                 1.406250000000000E+00,      /* J = 33 */
(PID.TID 0000.0001)                 4.218750000000000E+00,      /* J = 34 */
(PID.TID 0000.0001)                 7.031250000000000E+00,      /* J = 35 */
(PID.TID 0000.0001)                 9.843750000000000E+00,      /* J = 36 */
(PID.TID 0000.0001)                 1.265625000000000E+01,      /* J = 37 */
(PID.TID 0000.0001)                 1.546875000000000E+01,      /* J = 38 */
(PID.TID 0000.0001)                 1.828125000000000E+01,      /* J = 39 */
(PID.TID 0000.0001)                 2.109375000000000E+01,      /* J = 40 */
(PID.TID 0000.0001)                 2.390625000000000E+01,      /* J = 41 */
(PID.TID 0000.0001)                 2.671875000000000E+01,      /* J = 42 */
(PID.TID 0000.0001)                 2.953125000000000E+01,      /* J = 43 */
(PID.TID 0000.0001)                 3.234375000000000E+01,      /* J = 44 */
(PID.TID 0000.0001)                 3.515625000000000E+01,      /* J = 45 */
(PID.TID 0000.0001)                 3.796875000000000E+01,      /* J = 46 */
(PID.TID 0000.0001)                 4.078125000000000E+01,      /* J = 47 */
(PID.TID 0000.0001)                 4.359375000000000E+01,      /* J = 48 */
(PID.TID 0000.0001)                 4.640625000000000E+01,      /* J = 49 */
(PID.TID 0000.0001)                 4.921875000000000E+01,      /* J = 50 */
(PID.TID 0000.0001)                 5.203125000000000E+01,      /* J = 51 */
(PID.TID 0000.0001)                 5.484375000000000E+01,      /* J = 52 */
(PID.TID 0000.0001)                 5.765625000000000E+01,      /* J = 53 */
(PID.TID 0000.0001)                 6.046875000000000E+01,      /* J = 54 */
(PID.TID 0000.0001)                 6.328125000000000E+01,      /* J = 55 */
(PID.TID 0000.0001)                 6.609375000000000E+01,      /* J = 56 */
(PID.TID 0000.0001)                 6.890625000000000E+01,      /* J = 57 */
(PID.TID 0000.0001)                 7.171875000000000E+01,      /* J = 58 */
(PID.TID 0000.0001)                 7.453125000000000E+01,      /* J = 59 */
(PID.TID 0000.0001)                 7.734375000000000E+01,      /* J = 60 */
(PID.TID 0000.0001)                 8.015625000000000E+01,      /* J = 61 */
(PID.TID 0000.0001)                 8.296875000000000E+01,      /* J = 62 */
(PID.TID 0000.0001)                 8.578125000000000E+01,      /* J = 63 */
(PID.TID 0000.0001)                 8.859375000000000E+01       /* J = 64 */
(PID.TID 0000.0001)     ;
(PID.TID 0000.0001) rcoord =   /* P-point R coordinate (  units of r ) */
(PID.TID 0000.0001)                 9.500000000000000E+04,      /* K =  1 */
(PID.TID 0000.0001)                 7.750000000000000E+04,      /* K =  2 */
(PID.TID 0000.0001)                 5.000000000000000E+04,      /* K =  3 */
(PID.TID 0000.0001)                 2.500000000000000E+04,      /* K =  4 */
(PID.TID 0000.0001)                 7.500000000000000E+03       /* K =  5 */
(PID.TID 0000.0001)     ;
(PID.TID 0000.0001) dxF =  /* dxF(:,1,:,1) ( m - cartesian, degrees - spherical ) */
(PID.TID 0000.0001)   128 @  7.673714381622298E+03              /* I =  1:128 */
(PID.TID 0000.0001)     ;
(PID.TID 0000.0001) dxF =  /* dxF(1,:,1,:) ( m - cartesian, degrees - spherical ) */
(PID.TID 0000.0001)                 7.673714381622298E+03,      /* J =  1 */
(PID.TID 0000.0001)                 2.300265649478360E+04,      /* J =  2 */
(PID.TID 0000.0001)                 3.827618319365422E+04,      /* J =  3 */
(PID.TID 0000.0001)                 5.345749921461356E+04,      /* J =  4 */
(PID.TID 0000.0001)                 6.851003143764105E+04,      /* J =  5 */
(PID.TID 0000.0001)                 8.339751699416523E+04,      /* J =  6 */
(PID.TID 0000.0001)                 9.808409062749070E+04,      /* J =  7 */
(PID.TID 0000.0001)                 1.125343710953429E+05,      /* J =  8 */
(PID.TID 0000.0001)                 1.267135464063795E+05,      /* J =  9 */
(PID.TID 0000.0001)                 1.405874576853274E+05,      /* J = 10 */
(PID.TID 0000.0001)                 1.541226814647045E+05,      /* J = 11 */
(PID.TID 0000.0001)                 1.672866102048805E+05,      /* J = 12 */
(PID.TID 0000.0001)                 1.800475308484964E+05,      /* J = 13 */
(PID.TID 0000.0001)                 1.923747012199971E+05,      /* J = 14 */
(PID.TID 0000.0001)                 2.042384240862251E+05,      /* J = 15 */
(PID.TID 0000.0001)                 2.156101186996563E+05,      /* J = 16 */
(PID.TID 0000.0001)                 2.264623896519241E+05,      /* J = 17 */
(PID.TID 0000.0001)                 2.367690928717577E+05,      /* J = 18 */
(PID.TID 0000.0001)                 2.465053986083400E+05,      /* J = 19 */
(PID.TID 0000.0001)                 2.556478512483520E+05,      /* J = 20 */
(PID.TID 0000.0001)                 2.641744258225996E+05,      /* J = 21 */
(PID.TID 0000.0001)                 2.720645810660936E+05,      /* J = 22 */
(PID.TID 0000.0001)                 2.792993089037566E+05,      /* J = 23 */
(PID.TID 0000.0001)                 2.858611802425402E+05,      /* J = 24 */
(PID.TID 0000.0001)                 2.917343869596373E+05,      /* J = 25 */
(PID.TID 0000.0001)                 2.969047799856344E+05,      /* J = 26 */
(PID.TID 0000.0001)                 3.013599033908587E+05,      /* J = 27 */
(PID.TID 0000.0001)                 3.050890243928044E+05,      /* J = 28 */
(PID.TID 0000.0001)                 3.080831592123453E+05,      /* J = 29 */
(PID.TID 0000.0001)                 3.103350947164461E+05,      /* J = 30 */
(PID.TID 0000.0001)                 3.118394057952310E+05,      /* J = 31 */
(PID.TID 0000.0001)     2 @  3.125924684315491E+05,             /* J = 32: 33 */
(PID.TID 0000.0001)                 3.118394057952310E+05,      /* J = 34 */
(PID.TID 0000.0001)                 3.103350947164461E+05,      /* J = 35 */
(PID.TID 0000.0001)                 3.080831592123453E+05,      /* J = 36 */
(PID.TID 0000.0001)                 3.050890243928044E+05,      /* J = 37 */
(PID.TID 0000.0001)                 3.013599033908587E+05,      /* J = 38 */
(PID.TID 0000.0001)                 2.969047799856344E+05,      /* J = 39 */
(PID.TID 0000.0001)                 2.917343869596373E+05,      /* J = 40 */
(PID.TID 0000.0001)                 2.858611802425402E+05,      /* J = 41 */
(PID.TID 0000.0001)                 2.792993089037566E+05,      /* J = 42 */
(PID.TID 0000.0001)                 2.720645810660936E+05,      /* J = 43 */
(PID.TID 0000.0001)                 2.641744258225996E+05,      /* J = 44 */
(PID.TID 0000.0001)                 2.556478512483520E+05,      /* J = 45 */
(PID.TID 0000.0001)                 2.465053986083400E+05,      /* J = 46 */
(PID.TID 0000.0001)                 2.367690928717577E+05,      /* J = 47 */
(PID.TID 0000.0001)                 2.264623896519241E+05,      /* J = 48 */
(PID.TID 0000.0001)                 2.156101186996563E+05,      /* J = 49 */
(PID.TID 0000.0001)                 2.042384240862251E+05,      /* J = 50 */
(PID.TID 0000.0001)                 1.923747012199971E+05,      /* J = 51 */
(PID.TID 0000.0001)                 1.800475308484964E+05,      /* J = 52 */
(PID.TID 0000.0001)                 1.672866102048805E+05,      /* J = 53 */
(PID.TID 0000.0001)                 1.541226814647045E+05,      /* J = 54 */
(PID.TID 0000.0001)                 1.405874576853274E+05,      /* J = 55 */
(PID.TID 0000.0001)                 1.267135464063795E+05,      /* J = 56 */
(PID.TID 0000.0001)                 1.125343710953429E+05,      /* J = 57 */
(PID.TID 0000.0001)                 9.808409062749070E+04,      /* J = 58 */
(PID.TID 0000.0001)                 8.339751699416523E+04,      /* J = 59 */
(PID.TID 0000.0001)                 6.851003143764105E+04,      /* J = 60 */
(PID.TID 0000.0001)                 5.345749921461356E+04,      /* J = 61 */
(PID.TID 0000.0001)                 3.827618319365422E+04,      /* J = 62 */
(PID.TID 0000.0001)                 2.300265649478360E+04,      /* J = 63 */
(PID.TID 0000.0001)                 7.673714381622298E+03       /* J = 64 */
(PID.TID 0000.0001)     ;
(PID.TID 0000.0001) dyF =  /* dyF(:,1,:,1) ( m - cartesian, degrees - spherical ) */
(PID.TID 0000.0001)   128 @  3.126866438026091E+05              /* I =  1:128 */
(PID.TID 0000.0001)     ;
(PID.TID 0000.0001) dyF =  /* dyF(1,:,1,:) ( m - cartesian, degrees - spherical ) */
(PID.TID 0000.0001)    64 @  3.126866438026091E+05              /* J =  1: 64 */
(PID.TID 0000.0001)     ;
(PID.TID 0000.0001) dxG =  /* dxG(:,1,:,1) ( m - cartesian, degrees - spherical ) */
(PID.TID 0000.0001)   128 @  0.000000000000000E+00              /* I =  1:128 */
(PID.TID 0000.0001)     ;
(PID.TID 0000.0001) dxG =  /* dxG(1,:,1,:) ( m - cartesian, degrees - spherical ) */
(PID.TID 0000.0001)                 0.000000000000000E+00,      /* J =  1 */
(PID.TID 0000.0001)                 1.534280640463982E+04,      /* J =  2 */
(PID.TID 0000.0001)                 3.064865064477965E+04,      /* J =  3 */
(PID.TID 0000.0001)                 4.588065960101153E+04,      /* J =  4 */
(PID.TID 0000.0001)                 6.100213802959343E+04,      /* J =  5 */
(PID.TID 0000.0001)                 7.597665696450579E+04,      /* J =  6 */
(PID.TID 0000.0001)                 9.076814147802141E+04,      /* J =  7 */
(PID.TID 0000.0001)                 1.053409575883663E+05,      /* J =  8 */
(PID.TID 0000.0001)                 1.196599981051027E+05,      /* J =  9 */
(PID.TID 0000.0001)                 1.336907672054259E+05,      /* J = 10 */
(PID.TID 0000.0001)                 1.473994635376230E+05,      /* J = 11 */
(PID.TID 0000.0001)                 1.607530616514898E+05,      /* J = 12 */
(PID.TID 0000.0001)                 1.737193915595329E+05,      /* J = 13 */
(PID.TID 0000.0001)                 1.862672162372875E+05,      /* J = 14 */
(PID.TID 0000.0001)                 1.983663068760452E+05,      /* J = 15 */
(PID.TID 0000.0001)                 2.099875157067021E+05,      /* J = 16 */
(PID.TID 0000.0001)                 2.211028462192875E+05,      /* J = 17 */
(PID.TID 0000.0001)                 2.316855206090085E+05,      /* J = 18 */
(PID.TID 0000.0001)                 2.417100442863275E+05,      /* J = 19 */
(PID.TID 0000.0001)                 2.511522672956614E+05,      /* J = 20 */
(PID.TID 0000.0001)                 2.599894424947395E+05,      /* J = 21 */
(PID.TID 0000.0001)                 2.682002803544621E+05,      /* J = 22 */
(PID.TID 0000.0001)                 2.757650002472408E+05,      /* J = 23 */
(PID.TID 0000.0001)                 2.826653781002625E+05,      /* J = 24 */
(PID.TID 0000.0001)                 2.888847902988778E+05,      /* J = 25 */
(PID.TID 0000.0001)                 2.944082537343438E+05,      /* J = 26 */
(PID.TID 0000.0001)                 2.992224618994463E+05,      /* J = 27 */
(PID.TID 0000.0001)                 3.033158169450409E+05,      /* J = 28 */
(PID.TID 0000.0001)                 3.066784576202870E+05,      /* J = 29 */
(PID.TID 0000.0001)                 3.093022830292655E+05,      /* J = 30 */
(PID.TID 0000.0001)                 3.111809721467461E+05,      /* J = 31 */
(PID.TID 0000.0001)                 3.123099990460912E+05,      /* J = 32 */
(PID.TID 0000.0001)                 3.126866438026091E+05,      /* J = 33 */
(PID.TID 0000.0001)                 3.123099990460912E+05,      /* J = 34 */
(PID.TID 0000.0001)                 3.111809721467461E+05,      /* J = 35 */
(PID.TID 0000.0001)                 3.093022830292655E+05,      /* J = 36 */
(PID.TID 0000.0001)                 3.066784576202870E+05,      /* J = 37 */
(PID.TID 0000.0001)                 3.033158169450409E+05,      /* J = 38 */
(PID.TID 0000.0001)                 2.992224618994463E+05,      /* J = 39 */
(PID.TID 0000.0001)                 2.944082537343438E+05,      /* J = 40 */
(PID.TID 0000.0001)                 2.888847902988778E+05,      /* J = 41 */
(PID.TID 0000.0001)                 2.826653781002625E+05,      /* J = 42 */
(PID.TID 0000.0001)                 2.757650002472408E+05,      /* J = 43 */
(PID.TID 0000.0001)                 2.682002803544621E+05,      /* J = 44 */
(PID.TID 0000.0001)                 2.599894424947395E+05,      /* J = 45 */
(PID.TID 0000.0001)                 2.511522672956614E+05,      /* J = 46 */
(PID.TID 0000.0001)                 2.417100442863275E+05,      /* J = 47 */
(PID.TID 0000.0001)                 2.316855206090085E+05,      /* J = 48 */
(PID.TID 0000.0001)                 2.211028462192875E+05,      /* J = 49 */
(PID.TID 0000.0001)                 2.099875157067021E+05,      /* J = 50 */
(PID.TID 0000.0001)                 1.983663068760452E+05,      /* J = 51 */
(PID.TID 0000.0001)                 1.862672162372875E+05,      /* J = 52 */
(PID.TID 0000.0001)                 1.737193915595329E+05,      /* J = 53 */
(PID.TID 0000.0001)                 1.607530616514898E+05,      /* J = 54 */
(PID.TID 0000.0001)                 1.473994635376230E+05,      /* J = 55 */
(PID.TID 0000.0001)                 1.336907672054259E+05,      /* J = 56 */
(PID.TID 0000.0001)                 1.196599981051027E+05,      /* J = 57 */
(PID.TID 0000.0001)                 1.053409575883663E+05,      /* J = 58 */
(PID.TID 0000.0001)                 9.076814147802141E+04,      /* J = 59 */
(PID.TID 0000.0001)                 7.597665696450579E+04,      /* J = 60 */
(PID.TID 0000.0001)                 6.100213802959343E+04,      /* J = 61 */
(PID.TID 0000.0001)                 4.588065960101153E+04,      /* J = 62 */
(PID.TID 0000.0001)                 3.064865064477965E+04,      /* J = 63 */
(PID.TID 0000.0001)                 1.534280640463982E+04       /* J = 64 */
(PID.TID 0000.0001)     ;
(PID.TID 0000.0001) dyG =  /* dyG(:,1,:,1) ( m - cartesian, degrees - spherical ) */
(PID.TID 0000.0001)   128 @  3.126866438026091E+05              /* I =  1:128 */
(PID.TID 0000.0001)     ;
(PID.TID 0000.0001) dyG =  /* dyG(1,:,1,:) ( m - cartesian, degrees - spherical ) */
(PID.TID 0000.0001)    64 @  3.126866438026091E+05              /* J =  1: 64 */
(PID.TID 0000.0001)     ;
(PID.TID 0000.0001) dxC =  /* dxC(:,1,:,1) ( m - cartesian, degrees - spherical ) */
(PID.TID 0000.0001)   128 @  7.673714381622298E+03              /* I =  1:128 */
(PID.TID 0000.0001)     ;
(PID.TID 0000.0001) dxC =  /* dxC(1,:,1,:) ( m - cartesian, degrees - spherical ) */
(PID.TID 0000.0001)                 7.673714381622298E+03,      /* J =  1 */
(PID.TID 0000.0001)                 2.300265649478360E+04,      /* J =  2 */
(PID.TID 0000.0001)                 3.827618319365422E+04,      /* J =  3 */
(PID.TID 0000.0001)                 5.345749921461356E+04,      /* J =  4 */
(PID.TID 0000.0001)                 6.851003143764105E+04,      /* J =  5 */
(PID.TID 0000.0001)                 8.339751699416523E+04,      /* J =  6 */
(PID.TID 0000.0001)                 9.808409062749070E+04,      /* J =  7 */
(PID.TID 0000.0001)                 1.125343710953429E+05,      /* J =  8 */
(PID.TID 0000.0001)                 1.267135464063795E+05,      /* J =  9 */
(PID.TID 0000.0001)                 1.405874576853274E+05,      /* J = 10 */
(PID.TID 0000.0001)                 1.541226814647045E+05,      /* J = 11 */
(PID.TID 0000.0001)                 1.672866102048805E+05,      /* J = 12 */
(PID.TID 0000.0001)                 1.800475308484964E+05,      /* J = 13 */
(PID.TID 0000.0001)                 1.923747012199971E+05,      /* J = 14 */
(PID.TID 0000.0001)                 2.042384240862251E+05,      /* J = 15 */
(PID.TID 0000.0001)                 2.156101186996563E+05,      /* J = 16 */
(PID.TID 0000.0001)                 2.264623896519241E+05,      /* J = 17 */
(PID.TID 0000.0001)                 2.367690928717577E+05,      /* J = 18 */
(PID.TID 0000.0001)                 2.465053986083400E+05,      /* J = 19 */
(PID.TID 0000.0001)                 2.556478512483520E+05,      /* J = 20 */
(PID.TID 0000.0001)                 2.641744258225996E+05,      /* J = 21 */
(PID.TID 0000.0001)                 2.720645810660936E+05,      /* J = 22 */
(PID.TID 0000.0001)                 2.792993089037566E+05,      /* J = 23 */
(PID.TID 0000.0001)                 2.858611802425402E+05,      /* J = 24 */
(PID.TID 0000.0001)                 2.917343869596373E+05,      /* J = 25 */
(PID.TID 0000.0001)                 2.969047799856344E+05,      /* J = 26 */
(PID.TID 0000.0001)                 3.013599033908587E+05,      /* J = 27 */
(PID.TID 0000.0001)                 3.050890243928044E+05,      /* J = 28 */
(PID.TID 0000.0001)                 3.080831592123453E+05,      /* J = 29 */
(PID.TID 0000.0001)                 3.103350947164461E+05,      /* J = 30 */
(PID.TID 0000.0001)                 3.118394057952310E+05,      /* J = 31 */
(PID.TID 0000.0001)     2 @  3.125924684315491E+05,             /* J = 32: 33 */
(PID.TID 0000.0001)                 3.118394057952310E+05,      /* J = 34 */
(PID.TID 0000.0001)                 3.103350947164461E+05,      /* J = 35 */
(PID.TID 0000.0001)                 3.080831592123453E+05,      /* J = 36 */
(PID.TID 0000.0001)                 3.050890243928044E+05,      /* J = 37 */
(PID.TID 0000.0001)                 3.013599033908587E+05,      /* J = 38 */
(PID.TID 0000.0001)                 2.969047799856344E+05,      /* J = 39 */
(PID.TID 0000.0001)                 2.917343869596373E+05,      /* J = 40 */
(PID.TID 0000.0001)                 2.858611802425402E+05,      /* J = 41 */
(PID.TID 0000.0001)                 2.792993089037566E+05,      /* J = 42 */
(PID.TID 0000.0001)                 2.720645810660936E+05,      /* J = 43 */
(PID.TID 0000.0001)                 2.641744258225996E+05,      /* J = 44 */
(PID.TID 0000.0001)                 2.556478512483520E+05,      /* J = 45 */
(PID.TID 0000.0001)                 2.465053986083400E+05,      /* J = 46 */
(PID.TID 0000.0001)                 2.367690928717577E+05,      /* J = 47 */
(PID.TID 0000.0001)                 2.264623896519241E+05,      /* J = 48 */
(PID.TID 0000.0001)                 2.156101186996563E+05,      /* J = 49 */
(PID.TID 0000.0001)                 2.042384240862251E+05,      /* J = 50 */
(PID.TID 0000.0001)                 1.923747012199971E+05,      /* J = 51 */
(PID.TID 0000.0001)                 1.800475308484964E+05,      /* J = 52 */
(PID.TID 0000.0001)                 1.672866102048805E+05,      /* J = 53 */
(PID.TID 0000.0001)                 1.541226814647045E+05,      /* J = 54 */
(PID.TID 0000.0001)                 1.405874576853274E+05,      /* J = 55 */
(PID.TID 0000.0001)                 1.267135464063795E+05,      /* J = 56 */
(PID.TID 0000.0001)                 1.125343710953429E+05,      /* J = 57 */
(PID.TID 0000.0001)                 9.808409062749070E+04,      /* J = 58 */
(PID.TID 0000.0001)                 8.339751699416523E+04,      /* J = 59 */
(PID.TID 0000.0001)                 6.851003143764105E+04,      /* J = 60 */
(PID.TID 0000.0001)                 5.345749921461356E+04,      /* J = 61 */
(PID.TID 0000.0001)                 3.827618319365422E+04,      /* J = 62 */
(PID.TID 0000.0001)                 2.300265649478360E+04,      /* J = 63 */
(PID.TID 0000.0001)                 7.673714381622298E+03       /* J = 64 */
(PID.TID 0000.0001)     ;
(PID.TID 0000.0001) dyC =  /* dyC(:,1,:,1) ( m - cartesian, degrees - spherical ) */
(PID.TID 0000.0001)   128 @  3.126866438026091E+05              /* I =  1:128 */
(PID.TID 0000.0001)     ;
(PID.TID 0000.0001) dyC =  /* dyC(1,:,1,:) ( m - cartesian, degrees - spherical ) */
(PID.TID 0000.0001)    64 @  3.126866438026091E+05              /* J =  1: 64 */
(PID.TID 0000.0001)     ;
(PID.TID 0000.0001) dxV =  /* dxV(:,1,:,1) ( m - cartesian, degrees - spherical ) */
(PID.TID 0000.0001)   128 @  0.000000000000000E+00              /* I =  1:128 */
(PID.TID 0000.0001)     ;
(PID.TID 0000.0001) dxV =  /* dxV(1,:,1,:) ( m - cartesian, degrees - spherical ) */
(PID.TID 0000.0001)                 0.000000000000000E+00,      /* J =  1 */
(PID.TID 0000.0001)                 1.534280640463982E+04,      /* J =  2 */
(PID.TID 0000.0001)                 3.064865064477965E+04,      /* J =  3 */
(PID.TID 0000.0001)                 4.588065960101153E+04,      /* J =  4 */
(PID.TID 0000.0001)                 6.100213802959343E+04,      /* J =  5 */
(PID.TID 0000.0001)                 7.597665696450579E+04,      /* J =  6 */
(PID.TID 0000.0001)                 9.076814147802141E+04,      /* J =  7 */
(PID.TID 0000.0001)                 1.053409575883663E+05,      /* J =  8 */
(PID.TID 0000.0001)                 1.196599981051027E+05,      /* J =  9 */
(PID.TID 0000.0001)                 1.336907672054259E+05,      /* J = 10 */
(PID.TID 0000.0001)                 1.473994635376230E+05,      /* J = 11 */
(PID.TID 0000.0001)                 1.607530616514898E+05,      /* J = 12 */
(PID.TID 0000.0001)                 1.737193915595329E+05,      /* J = 13 */
(PID.TID 0000.0001)                 1.862672162372875E+05,      /* J = 14 */
(PID.TID 0000.0001)                 1.983663068760452E+05,      /* J = 15 */
(PID.TID 0000.0001)                 2.099875157067021E+05,      /* J = 16 */
(PID.TID 0000.0001)                 2.211028462192875E+05,      /* J = 17 */
(PID.TID 0000.0001)                 2.316855206090085E+05,      /* J = 18 */
(PID.TID 0000.0001)                 2.417100442863275E+05,      /* J = 19 */
(PID.TID 0000.0001)                 2.511522672956614E+05,      /* J = 20 */
(PID.TID 0000.0001)                 2.599894424947395E+05,      /* J = 21 */
(PID.TID 0000.0001)                 2.682002803544621E+05,      /* J = 22 */
(PID.TID 0000.0001)                 2.757650002472408E+05,      /* J = 23 */
(PID.TID 0000.0001)                 2.826653781002625E+05,      /* J = 24 */
(PID.TID 0000.0001)                 2.888847902988778E+05,      /* J = 25 */
(PID.TID 0000.0001)                 2.944082537343438E+05,      /* J = 26 */
(PID.TID 0000.0001)                 2.992224618994463E+05,      /* J = 27 */
(PID.TID 0000.0001)                 3.033158169450409E+05,      /* J = 28 */
(PID.TID 0000.0001)                 3.066784576202870E+05,      /* J = 29 */
(PID.TID 0000.0001)                 3.093022830292655E+05,      /* J = 30 */
(PID.TID 0000.0001)                 3.111809721467461E+05,      /* J = 31 */
(PID.TID 0000.0001)                 3.123099990460912E+05,      /* J = 32 */
(PID.TID 0000.0001)                 3.126866438026091E+05,      /* J = 33 */
(PID.TID 0000.0001)                 3.123099990460912E+05,      /* J = 34 */
(PID.TID 0000.0001)                 3.111809721467461E+05,      /* J = 35 */
(PID.TID 0000.0001)                 3.093022830292655E+05,      /* J = 36 */
(PID.TID 0000.0001)                 3.066784576202870E+05,      /* J = 37 */
(PID.TID 0000.0001)                 3.033158169450409E+05,      /* J = 38 */
(PID.TID 0000.0001)                 2.992224618994463E+05,      /* J = 39 */
(PID.TID 0000.0001)                 2.944082537343438E+05,      /* J = 40 */
(PID.TID 0000.0001)                 2.888847902988778E+05,      /* J = 41 */
(PID.TID 0000.0001)                 2.826653781002625E+05,      /* J = 42 */
(PID.TID 0000.0001)                 2.757650002472408E+05,      /* J = 43 */
(PID.TID 0000.0001)                 2.682002803544621E+05,      /* J = 44 */
(PID.TID 0000.0001)                 2.599894424947395E+05,      /* J = 45 */
(PID.TID 0000.0001)                 2.511522672956614E+05,      /* J = 46 */
(PID.TID 0000.0001)                 2.417100442863275E+05,      /* J = 47 */
(PID.TID 0000.0001)                 2.316855206090085E+05,      /* J = 48 */
(PID.TID 0000.0001)                 2.211028462192875E+05,      /* J = 49 */
(PID.TID 0000.0001)                 2.099875157067021E+05,      /* J = 50 */
(PID.TID 0000.0001)                 1.983663068760452E+05,      /* J = 51 */
(PID.TID 0000.0001)                 1.862672162372875E+05,      /* J = 52 */
(PID.TID 0000.0001)                 1.737193915595329E+05,      /* J = 53 */
(PID.TID 0000.0001)                 1.607530616514898E+05,      /* J = 54 */
(PID.TID 0000.0001)                 1.473994635376230E+05,      /* J = 55 */
(PID.TID 0000.0001)                 1.336907672054259E+05,      /* J = 56 */
(PID.TID 0000.0001)                 1.196599981051027E+05,      /* J = 57 */
(PID.TID 0000.0001)                 1.053409575883663E+05,      /* J = 58 */
(PID.TID 0000.0001)                 9.076814147802141E+04,      /* J = 59 */
(PID.TID 0000.0001)                 7.597665696450579E+04,      /* J = 60 */
(PID.TID 0000.0001)                 6.100213802959343E+04,      /* J = 61 */
(PID.TID 0000.0001)                 4.588065960101153E+04,      /* J = 62 */
(PID.TID 0000.0001)                 3.064865064477965E+04,      /* J = 63 */
(PID.TID 0000.0001)                 1.534280640463982E+04       /* J = 64 */
(PID.TID 0000.0001)     ;
(PID.TID 0000.0001) dyU =  /* dyU(:,1,:,1) ( m - cartesian, degrees - spherical ) */
(PID.TID 0000.0001)   128 @  3.126866438026091E+05              /* I =  1:128 */
(PID.TID 0000.0001)     ;
(PID.TID 0000.0001) dyU =  /* dyU(1,:,1,:) ( m - cartesian, degrees - spherical ) */
(PID.TID 0000.0001)    64 @  3.126866438026091E+05              /* J =  1: 64 */
(PID.TID 0000.0001)     ;
(PID.TID 0000.0001) rA =  /* rA(:,1,:,1) ( m - cartesian, degrees - spherical ) */
(PID.TID 0000.0001)   128 @  2.399227099019018E+09              /* I =  1:128 */
(PID.TID 0000.0001)     ;
(PID.TID 0000.0001) rA =  /* rA(1,:,1,:) ( m - cartesian, degrees - spherical ) */
(PID.TID 0000.0001)                 2.399227099019018E+09,      /* J =  1 */
(PID.TID 0000.0001)                 7.191901348828057E+09,      /* J =  2 */
(PID.TID 0000.0001)                 1.196724967835171E+10,      /* J =  3 */
(PID.TID 0000.0001)                 1.671376785519299E+10,      /* J =  4 */
(PID.TID 0000.0001)                 2.142002110131771E+10,      /* J =  5 */
(PID.TID 0000.0001)                 2.607467164043704E+10,      /* J =  6 */
(PID.TID 0000.0001)                 3.066650601170350E+10,      /* J =  7 */
(PID.TID 0000.0001)                 3.518446208391881E+10,      /* J =  8 */
(PID.TID 0000.0001)                 3.961765570517892E+10,      /* J =  9 */
(PID.TID 0000.0001)                 4.395540692374861E+10,      /* J = 10 */
(PID.TID 0000.0001)                 4.818726571700000E+10,      /* J = 11 */
(PID.TID 0000.0001)                 5.230303716643333E+10,      /* J = 12 */
(PID.TID 0000.0001)                 5.629280601812741E+10,      /* J = 13 */
(PID.TID 0000.0001)                 6.014696056945659E+10,      /* J = 14 */
(PID.TID 0000.0001)                 6.385621582452238E+10,      /* J = 15 */
(PID.TID 0000.0001)                 6.741163586252304E+10,      /* J = 16 */
(PID.TID 0000.0001)                 7.080465536516847E+10,      /* J = 17 */
(PID.TID 0000.0001)                 7.402710025128452E+10,      /* J = 18 */
(PID.TID 0000.0001)                 7.707120736888658E+10,      /* J = 19 */
(PID.TID 0000.0001)                 7.992964319729683E+10,      /* J = 20 */
(PID.TID 0000.0001)                 8.259552151423444E+10,      /* J = 21 */
(PID.TID 0000.0001)                 8.506241998533159E+10,      /* J = 22 */
(PID.TID 0000.0001)                 8.732439563609566E+10,      /* J = 23 */
(PID.TID 0000.0001)                 8.937599916905872E+10,      /* J = 24 */
(PID.TID 0000.0001)                 9.121228809161066E+10,      /* J = 25 */
(PID.TID 0000.0001)                 9.282883862289705E+10,      /* J = 26 */
(PID.TID 0000.0001)                 9.422175635109474E+10,      /* J = 27 */
(PID.TID 0000.0001)                 9.538768561539165E+10,      /* J = 28 */
(PID.TID 0000.0001)                 9.632381759006651E+10,      /* J = 29 */
(PID.TID 0000.0001)                 9.702789705119698E+10,      /* J = 30 */
(PID.TID 0000.0001)                 9.749822780969106E+10,      /* J = 31 */
(PID.TID 0000.0001)     2 @  9.773367679755542E+10,             /* J = 32: 33 */
(PID.TID 0000.0001)                 9.749822780969106E+10,      /* J = 34 */
(PID.TID 0000.0001)                 9.702789705119698E+10,      /* J = 35 */
(PID.TID 0000.0001)                 9.632381759006651E+10,      /* J = 36 */
(PID.TID 0000.0001)                 9.538768561539165E+10,      /* J = 37 */
(PID.TID 0000.0001)                 9.422175635109474E+10,      /* J = 38 */
(PID.TID 0000.0001)                 9.282883862289705E+10,      /* J = 39 */
(PID.TID 0000.0001)                 9.121228809161066E+10,      /* J = 40 */
(PID.TID 0000.0001)                 8.937599916905872E+10,      /* J = 41 */
(PID.TID 0000.0001)                 8.732439563609566E+10,      /* J = 42 */
(PID.TID 0000.0001)                 8.506241998533159E+10,      /* J = 43 */
(PID.TID 0000.0001)                 8.259552151423444E+10,      /* J = 44 */
(PID.TID 0000.0001)                 7.992964319729683E+10,      /* J = 45 */
(PID.TID 0000.0001)                 7.707120736888658E+10,      /* J = 46 */
(PID.TID 0000.0001)                 7.402710025128452E+10,      /* J = 47 */
(PID.TID 0000.0001)                 7.080465536516847E+10,      /* J = 48 */
(PID.TID 0000.0001)                 6.741163586252304E+10,      /* J = 49 */
(PID.TID 0000.0001)                 6.385621582452238E+10,      /* J = 50 */
(PID.TID 0000.0001)                 6.014696056945659E+10,      /* J = 51 */
(PID.TID 0000.0001)                 5.629280601812741E+10,      /* J = 52 */
(PID.TID 0000.0001)                 5.230303716643333E+10,      /* J = 53 */
(PID.TID 0000.0001)                 4.818726571700000E+10,      /* J = 54 */
(PID.TID 0000.0001)                 4.395540692374861E+10,      /* J = 55 */
(PID.TID 0000.0001)                 3.961765570517892E+10,      /* J = 56 */
(PID.TID 0000.0001)                 3.518446208391881E+10,      /* J = 57 */
(PID.TID 0000.0001)                 3.066650601170350E+10,      /* J = 58 */
(PID.TID 0000.0001)                 2.607467164043704E+10,      /* J = 59 */
(PID.TID 0000.0001)                 2.142002110131771E+10,      /* J = 60 */
(PID.TID 0000.0001)                 1.671376785519299E+10,      /* J = 61 */
(PID.TID 0000.0001)                 1.196724967835171E+10,      /* J = 62 */
(PID.TID 0000.0001)                 7.191901348828057E+09,      /* J = 63 */
(PID.TID 0000.0001)                 2.399227099019018E+09       /* J = 64 */
(PID.TID 0000.0001)     ;
(PID.TID 0000.0001) rAw =  /* rAw(:,1,:,1) ( m - cartesian, degrees - spherical ) */
(PID.TID 0000.0001)   128 @  2.399227099019018E+09              /* I =  1:128 */
(PID.TID 0000.0001)     ;
(PID.TID 0000.0001) rAw =  /* rAw(1,:,1,:) ( m - cartesian, degrees - spherical ) */
(PID.TID 0000.0001)                 2.399227099019018E+09,      /* J =  1 */
(PID.TID 0000.0001)                 7.191901348828057E+09,      /* J =  2 */
(PID.TID 0000.0001)                 1.196724967835171E+10,      /* J =  3 */
(PID.TID 0000.0001)                 1.671376785519299E+10,      /* J =  4 */
(PID.TID 0000.0001)                 2.142002110131771E+10,      /* J =  5 */
(PID.TID 0000.0001)                 2.607467164043704E+10,      /* J =  6 */
(PID.TID 0000.0001)                 3.066650601170350E+10,      /* J =  7 */
(PID.TID 0000.0001)                 3.518446208391881E+10,      /* J =  8 */
(PID.TID 0000.0001)                 3.961765570517892E+10,      /* J =  9 */
(PID.TID 0000.0001)                 4.395540692374861E+10,      /* J = 10 */
(PID.TID 0000.0001)                 4.818726571700000E+10,      /* J = 11 */
(PID.TID 0000.0001)                 5.230303716643333E+10,      /* J = 12 */
(PID.TID 0000.0001)                 5.629280601812741E+10,      /* J = 13 */
(PID.TID 0000.0001)                 6.014696056945659E+10,      /* J = 14 */
(PID.TID 0000.0001)                 6.385621582452238E+10,      /* J = 15 */
(PID.TID 0000.0001)                 6.741163586252304E+10,      /* J = 16 */
(PID.TID 0000.0001)                 7.080465536516847E+10,      /* J = 17 */
(PID.TID 0000.0001)                 7.402710025128452E+10,      /* J = 18 */
(PID.TID 0000.0001)                 7.707120736888658E+10,      /* J = 19 */
(PID.TID 0000.0001)                 7.992964319729683E+10,      /* J = 20 */
(PID.TID 0000.0001)                 8.259552151423444E+10,      /* J = 21 */
(PID.TID 0000.0001)                 8.506241998533159E+10,      /* J = 22 */
(PID.TID 0000.0001)                 8.732439563609566E+10,      /* J = 23 */
(PID.TID 0000.0001)                 8.937599916905872E+10,      /* J = 24 */
(PID.TID 0000.0001)                 9.121228809161066E+10,      /* J = 25 */
(PID.TID 0000.0001)                 9.282883862289705E+10,      /* J = 26 */
(PID.TID 0000.0001)                 9.422175635109474E+10,      /* J = 27 */
(PID.TID 0000.0001)                 9.538768561539165E+10,      /* J = 28 */
(PID.TID 0000.0001)                 9.632381759006651E+10,      /* J = 29 */
(PID.TID 0000.0001)                 9.702789705119698E+10,      /* J = 30 */
(PID.TID 0000.0001)                 9.749822780969106E+10,      /* J = 31 */
(PID.TID 0000.0001)     2 @  9.773367679755542E+10,             /* J = 32: 33 */
(PID.TID 0000.0001)                 9.749822780969106E+10,      /* J = 34 */
(PID.TID 0000.0001)                 9.702789705119698E+10,      /* J = 35 */
(PID.TID 0000.0001)                 9.632381759006651E+10,      /* J = 36 */
(PID.TID 0000.0001)                 9.538768561539165E+10,      /* J = 37 */
(PID.TID 0000.0001)                 9.422175635109474E+10,      /* J = 38 */
(PID.TID 0000.0001)                 9.282883862289705E+10,      /* J = 39 */
(PID.TID 0000.0001)                 9.121228809161066E+10,      /* J = 40 */
(PID.TID 0000.0001)                 8.937599916905872E+10,      /* J = 41 */
(PID.TID 0000.0001)                 8.732439563609566E+10,      /* J = 42 */
(PID.TID 0000.0001)                 8.506241998533159E+10,      /* J = 43 */
(PID.TID 0000.0001)                 8.259552151423444E+10,      /* J = 44 */
(PID.TID 0000.0001)                 7.992964319729683E+10,      /* J = 45 */
(PID.TID 0000.0001)                 7.707120736888658E+10,      /* J = 46 */
(PID.TID 0000.0001)                 7.402710025128452E+10,      /* J = 47 */
(PID.TID 0000.0001)                 7.080465536516847E+10,      /* J = 48 */
(PID.TID 0000.0001)                 6.741163586252304E+10,      /* J = 49 */
(PID.TID 0000.0001)                 6.385621582452238E+10,      /* J = 50 */
(PID.TID 0000.0001)                 6.014696056945659E+10,      /* J = 51 */
(PID.TID 0000.0001)                 5.629280601812741E+10,      /* J = 52 */
(PID.TID 0000.0001)                 5.230303716643333E+10,      /* J = 53 */
(PID.TID 0000.0001)                 4.818726571700000E+10,      /* J = 54 */
(PID.TID 0000.0001)                 4.395540692374861E+10,      /* J = 55 */
(PID.TID 0000.0001)                 3.961765570517892E+10,      /* J = 56 */
(PID.TID 0000.0001)                 3.518446208391881E+10,      /* J = 57 */
(PID.TID 0000.0001)                 3.066650601170350E+10,      /* J = 58 */
(PID.TID 0000.0001)                 2.607467164043704E+10,      /* J = 59 */
(PID.TID 0000.0001)                 2.142002110131771E+10,      /* J = 60 */
(PID.TID 0000.0001)                 1.671376785519299E+10,      /* J = 61 */
(PID.TID 0000.0001)                 1.196724967835171E+10,      /* J = 62 */
(PID.TID 0000.0001)                 7.191901348828057E+09,      /* J = 63 */
(PID.TID 0000.0001)                 2.399227099019018E+09       /* J = 64 */
(PID.TID 0000.0001)     ;
(PID.TID 0000.0001) rAs =  /* rAs(:,1,:,1) ( m - cartesian, degrees - spherical ) */
(PID.TID 0000.0001)   128 @  0.000000000000000E+00              /* I =  1:128 */
(PID.TID 0000.0001)     ;
(PID.TID 0000.0001) rAs =  /* rAs(1,:,1,:) ( m - cartesian, degrees - spherical ) */
(PID.TID 0000.0001)                 0.000000000000000E+00,      /* J =  1 */
(PID.TID 0000.0001)                 4.797008993346594E+09,      /* J =  2 */
(PID.TID 0000.0001)                 9.582461571859739E+09,      /* J =  3 */
(PID.TID 0000.0001)                 1.434482916112175E+10,      /* J =  4 */
(PID.TID 0000.0001)                 1.907263880047595E+10,      /* J =  5 */
(PID.TID 0000.0001)                 2.375450078239423E+10,      /* J =  6 */
(PID.TID 0000.0001)                 2.837913609127882E+10,      /* J =  7 */
(PID.TID 0000.0001)                 3.293540357560111E+10,      /* J =  8 */
(PID.TID 0000.0001)                 3.741232678790871E+10,      /* J =  9 */
(PID.TID 0000.0001)                 4.179912042805190E+10,      /* J = 10 */
(PID.TID 0000.0001)                 4.608521632591324E+10,      /* J = 11 */
(PID.TID 0000.0001)                 5.026028890105701E+10,      /* J = 12 */
(PID.TID 0000.0001)                 5.431428003795676E+10,      /* J = 13 */
(PID.TID 0000.0001)                 5.823742331687642E+10,      /* J = 14 */
(PID.TID 0000.0001)                 6.202026754202965E+10,      /* J = 15 */
(PID.TID 0000.0001)                 6.565369951034003E+10,      /* J = 16 */
(PID.TID 0000.0001)                 6.912896596594559E+10,      /* J = 17 */
(PID.TID 0000.0001)                 7.243769468755634E+10,      /* J = 18 */
(PID.TID 0000.0001)                 7.557191465787256E+10,      /* J = 19 */
(PID.TID 0000.0001)                 7.852407526645966E+10,      /* J = 20 */
(PID.TID 0000.0001)                 8.128706449983365E+10,      /* J = 21 */
(PID.TID 0000.0001)                 8.385422607492098E+10,      /* J = 22 */
(PID.TID 0000.0001)                 8.621937547463149E+10,      /* J = 23 */
(PID.TID 0000.0001)                 8.837681484689812E+10,      /* J = 24 */
(PID.TID 0000.0001)                 9.032134673130377E+10,      /* J = 25 */
(PID.TID 0000.0001)                 9.204828658021816E+10,      /* J = 26 */
(PID.TID 0000.0001)                 9.355347404428317E+10,      /* J = 27 */
(PID.TID 0000.0001)                 9.483328299505898E+10,      /* J = 28 */
(PID.TID 0000.0001)                 9.588463026068500E+10,      /* J = 29 */
(PID.TID 0000.0001)                 9.670498305351135E+10,      /* J = 30 */
(PID.TID 0000.0001)                 9.729236507180571E+10,      /* J = 31 */
(PID.TID 0000.0001)                 9.764536126083740E+10,      /* J = 32 */
(PID.TID 0000.0001)                 9.776312122186816E+10,      /* J = 33 */
(PID.TID 0000.0001)                 9.764536126083740E+10,      /* J = 34 */
(PID.TID 0000.0001)                 9.729236507180571E+10,      /* J = 35 */
(PID.TID 0000.0001)                 9.670498305351135E+10,      /* J = 36 */
(PID.TID 0000.0001)                 9.588463026068500E+10,      /* J = 37 */
(PID.TID 0000.0001)                 9.483328299505898E+10,      /* J = 38 */
(PID.TID 0000.0001)                 9.355347404428317E+10,      /* J = 39 */
(PID.TID 0000.0001)                 9.204828658021816E+10,      /* J = 40 */
(PID.TID 0000.0001)                 9.032134673130377E+10,      /* J = 41 */
(PID.TID 0000.0001)                 8.837681484689812E+10,      /* J = 42 */
(PID.TID 0000.0001)                 8.621937547463149E+10,      /* J = 43 */
(PID.TID 0000.0001)                 8.385422607492098E+10,      /* J = 44 */
(PID.TID 0000.0001)                 8.128706449983365E+10,      /* J = 45 */
(PID.TID 0000.0001)                 7.852407526645966E+10,      /* J = 46 */
(PID.TID 0000.0001)                 7.557191465787256E+10,      /* J = 47 */
(PID.TID 0000.0001)                 7.243769468755634E+10,      /* J = 48 */
(PID.TID 0000.0001)                 6.912896596594559E+10,      /* J = 49 */
(PID.TID 0000.0001)                 6.565369951034003E+10,      /* J = 50 */
(PID.TID 0000.0001)                 6.202026754202965E+10,      /* J = 51 */
(PID.TID 0000.0001)                 5.823742331687642E+10,      /* J = 52 */
(PID.TID 0000.0001)                 5.431428003795676E+10,      /* J = 53 */
(PID.TID 0000.0001)                 5.026028890105701E+10,      /* J = 54 */
(PID.TID 0000.0001)                 4.608521632591324E+10,      /* J = 55 */
(PID.TID 0000.0001)                 4.179912042805190E+10,      /* J = 56 */
(PID.TID 0000.0001)                 3.741232678790871E+10,      /* J = 57 */
(PID.TID 0000.0001)                 3.293540357560111E+10,      /* J = 58 */
(PID.TID 0000.0001)                 2.837913609127882E+10,      /* J = 59 */
(PID.TID 0000.0001)                 2.375450078239423E+10,      /* J = 60 */
(PID.TID 0000.0001)                 1.907263880047595E+10,      /* J = 61 */
(PID.TID 0000.0001)                 1.434482916112175E+10,      /* J = 62 */
(PID.TID 0000.0001)                 9.582461571859739E+09,      /* J = 63 */
(PID.TID 0000.0001)                 4.797008993346594E+09       /* J = 64 */
(PID.TID 0000.0001)     ;
(PID.TID 0000.0001) 
(PID.TID 0000.0001)  MDSREADFIELD: opening global file: pickup.0000017280
(PID.TID 0000.0001)  MDSREADFIELD: opening global file: pickup.0000017280
(PID.TID 0000.0001)  MDSREADFIELD: opening global file: pickup.0000017280
(PID.TID 0000.0001)  MDSREADFIELD: opening global file: pickup.0000017280
(PID.TID 0000.0001)  MDSREADFIELD: opening global file: pickup.0000017280
(PID.TID 0000.0001)  MDSREADFIELD: opening global file: pickup.0000017280
(PID.TID 0000.0001)  MDSREADFIELD: opening global file: pickup.0000017280
(PID.TID 0000.0001)  MDSREADFIELD: opening global file: pickup.0000017280
(PID.TID 0000.0001)  MDSREADFIELD: opening global file: pickup.0000017280
(PID.TID 0000.0001)  MDSREADFIELD: opening global file: pickup.0000017280
(PID.TID 0000.0001)  MDSREADFIELD: opening global file: pickup.0000017280
(PID.TID 0000.0001)  MDSREADFIELD: opening global file: pickup.0000017280
(PID.TID 0000.0001)  MDSREADFIELD: opening global file: pickup.0000017280
(PID.TID 0000.0001) // =======================================================
(PID.TID 0000.0001) // Model current state
(PID.TID 0000.0001) // =======================================================
(PID.TID 0000.0001) 
(PID.TID 0000.0001) // =======================================================
(PID.TID 0000.0001) // Begin MONITOR dynamic field statistics
(PID.TID 0000.0001) // =======================================================
(PID.TID 0000.0001) %MON time_tsnumber                =                 17280
(PID.TID 0000.0001) %MON time_secondsf                =   7.7760000000000E+06
(PID.TID 0000.0001) %MON time_secondsi                =               7776000
(PID.TID 0000.0001) %MON dynstat_eta_max              =   2.7221525482261E+04
(PID.TID 0000.0001) %MON dynstat_eta_min              =  -3.4391821454419E+04
(PID.TID 0000.0001) %MON dynstat_eta_mean             =  -2.8451837183546E-13
(PID.TID 0000.0001) %MON dynstat_eta_sd               =   2.4314257671012E+03
(PID.TID 0000.0001) %MON dynstat_eta_del2             =   3.0971095843562E+03
(PID.TID 0000.0001) %MON dynstat_uvel_max             =   7.0230428853456E+01
(PID.TID 0000.0001) %MON dynstat_uvel_min             =  -3.0012716565078E+01
(PID.TID 0000.0001) %MON dynstat_uvel_mean            =   7.2245704951548E+00
(PID.TID 0000.0001) %MON dynstat_uvel_sd              =   1.2848923608709E+01
(PID.TID 0000.0001) %MON dynstat_uvel_del2            =   6.1491486182381E-01
(PID.TID 0000.0001) %MON dynstat_vvel_max             =   3.5696376395414E+01
(PID.TID 0000.0001) %MON dynstat_vvel_min             =  -4.1391137979606E+01
(PID.TID 0000.0001) %MON dynstat_vvel_mean            =   1.2582690689799E-02
(PID.TID 0000.0001) %MON dynstat_vvel_sd              =   6.3382696568470E+00
(PID.TID 0000.0001) %MON dynstat_vvel_del2            =   4.5027949305782E-01
(PID.TID 0000.0001) %MON dynstat_wvel_max             =   0.0000000000000E+00
(PID.TID 0000.0001) %MON dynstat_wvel_min             =   0.0000000000000E+00
(PID.TID 0000.0001) %MON dynstat_wvel_mean            =   0.0000000000000E+00
(PID.TID 0000.0001) %MON dynstat_wvel_sd              =   0.0000000000000E+00
(PID.TID 0000.0001) %MON dynstat_wvel_del2            =   0.0000000000000E+00
(PID.TID 0000.0001) %MON dynstat_theta_max            =   4.7737294484491E+02
(PID.TID 0000.0001) %MON dynstat_theta_min            =   2.3934976061806E+02
(PID.TID 0000.0001) %MON dynstat_theta_mean           =   3.3182808693183E+02
(PID.TID 0000.0001) %MON dynstat_theta_sd             =   5.1274340316400E+01
(PID.TID 0000.0001) %MON dynstat_theta_del2           =   6.8142159479313E-01
(PID.TID 0000.0001) %MON dynstat_salt_max             =   1.8181202644437E+01
(PID.TID 0000.0001) %MON dynstat_salt_min             =  -2.3761785196222E+00
(PID.TID 0000.0001) %MON dynstat_salt_mean            =   2.3365486342710E+00
(PID.TID 0000.0001) %MON dynstat_salt_sd              =   3.4292661734929E+00
(PID.TID 0000.0001) %MON dynstat_salt_del2            =   1.2154664387496E-01
(PID.TID 0000.0001) %MON advcfl_uvel_max              =   6.0186347110443E-01
(PID.TID 0000.0001) %MON advcfl_vvel_max              =   5.9567661299216E-02
(PID.TID 0000.0001) %MON advcfl_wvel_max              =   0.0000000000000E+00
(PID.TID 0000.0001) %MON advcfl_W_hf_max              =   0.0000000000000E+00
(PID.TID 0000.0001) %MON ke_max                       =   2.5211644008330E+03
(PID.TID 0000.0001) %MON ke_mean                      =   1.3728235307069E+02
(PID.TID 0000.0001) %MON ke_volint                    =   6.3006252332134E+21
(PID.TID 0000.0001) %MON ke_volmean                   =   1.2779034578743E+02
(PID.TID 0000.0001) // =======================================================
(PID.TID 0000.0001) // End MONITOR dynamic field statistics
(PID.TID 0000.0001) // =======================================================
(PID.TID 0000.0001)  MDSREADFIELD: opening global file: salb.apr.ft.bin
(PID.TID 0000.0001)  MDSREADFIELD: opening global file: stheta.apr.ft.bin
(PID.TID 0000.0001)  MDSREADFIELD: opening global file: smoist.apr.ft.bin
 cg2d: Sum(rhs),rhsMax =  -1.10030740074762E-09  1.12759293688666E+03
(PID.TID 0000.0001)                    cg2d_init_res =    2.57356541259976E+05
(PID.TID 0000.0001)                       cg2d_iters =   169
(PID.TID 0000.0001)                         cg2d_res =    2.29769533475876E-12
(PID.TID 0000.0001) // =======================================================
(PID.TID 0000.0001) // Begin MONITOR dynamic field statistics
(PID.TID 0000.0001) // =======================================================
(PID.TID 0000.0001) %MON time_tsnumber                =                 17281
(PID.TID 0000.0001) %MON time_secondsf                =   7.7764500000000E+06
(PID.TID 0000.0001) %MON time_secondsi                =               7776450
(PID.TID 0000.0001) %MON dynstat_eta_max              =   2.7218948831194E+04
(PID.TID 0000.0001) %MON dynstat_eta_min              =  -3.4377980519546E+04
(PID.TID 0000.0001) %MON dynstat_eta_mean             =  -1.3669296810985E-12
(PID.TID 0000.0001) %MON dynstat_eta_sd               =   2.4314219409323E+03
(PID.TID 0000.0001) %MON dynstat_eta_del2             =   3.0972452300626E+03
(PID.TID 0000.0001) %MON dynstat_uvel_max             =   7.0210802805227E+01
(PID.TID 0000.0001) %MON dynstat_uvel_min             =  -2.9963569256009E+01
(PID.TID 0000.0001) %MON dynstat_uvel_mean            =   7.2245292965657E+00
(PID.TID 0000.0001) %MON dynstat_uvel_sd              =   1.2848636200110E+01
(PID.TID 0000.0001) %MON dynstat_uvel_del2            =   6.1482682045520E-01
(PID.TID 0000.0001) %MON dynstat_vvel_max             =   3.5662232617986E+01
(PID.TID 0000.0001) %MON dynstat_vvel_min             =  -4.1395096048036E+01
(PID.TID 0000.0001) %MON dynstat_vvel_mean            =   1.2562409606296E-02
(PID.TID 0000.0001) %MON dynstat_vvel_sd              =   6.3377023713657E+00
(PID.TID 0000.0001) %MON dynstat_vvel_del2            =   4.5023362491654E-01
(PID.TID 0000.0001) %MON dynstat_wvel_max             =   1.0639095253090E+00
(PID.TID 0000.0001) %MON dynstat_wvel_min             =  -7.8982526084137E-01
(PID.TID 0000.0001) %MON dynstat_wvel_mean            =   6.2545288899069E-06
(PID.TID 0000.0001) %MON dynstat_wvel_sd              =   8.2181597146446E-02
(PID.TID 0000.0001) %MON dynstat_wvel_del2            =   1.7179905032447E-02
(PID.TID 0000.0001) %MON dynstat_theta_max            =   4.7735284647115E+02
(PID.TID 0000.0001) %MON dynstat_theta_min            =   2.3938890522593E+02
(PID.TID 0000.0001) %MON dynstat_theta_mean           =   3.3182881009451E+02
(PID.TID 0000.0001) %MON dynstat_theta_sd             =   5.1273635155747E+01
(PID.TID 0000.0001) %MON dynstat_theta_del2           =   6.8133851256292E-01
(PID.TID 0000.0001) %MON dynstat_salt_max             =   1.8182441690231E+01
(PID.TID 0000.0001) %MON dynstat_salt_min             =  -2.3802855479724E+00
(PID.TID 0000.0001) %MON dynstat_salt_mean            =   2.3366717568290E+00
(PID.TID 0000.0001) %MON dynstat_salt_sd              =   3.4292805896847E+00
(PID.TID 0000.0001) %MON dynstat_salt_del2            =   1.2152753643872E-01
(PID.TID 0000.0001) %MON advcfl_uvel_max              =   6.0100158881645E-01
(PID.TID 0000.0001) %MON advcfl_vvel_max              =   5.9573357515633E-02
(PID.TID 0000.0001) %MON advcfl_wvel_max              =   2.0304117536796E-02
(PID.TID 0000.0001) %MON advcfl_W_hf_max              =   7.1064411378786E-02
(PID.TID 0000.0001) %MON ke_max                       =   2.5197011014242E+03
(PID.TID 0000.0001) %MON ke_mean                      =   1.3726415953412E+02
(PID.TID 0000.0001) %MON ke_volint                    =   6.3002542146029E+21
(PID.TID 0000.0001) %MON ke_volmean                   =   1.2778282072527E+02
(PID.TID 0000.0001) // =======================================================
(PID.TID 0000.0001) // End MONITOR dynamic field statistics
(PID.TID 0000.0001) // =======================================================
 cg2d: Sum(rhs),rhsMax =   1.67343472412540E-10  1.12769573592627E+03
(PID.TID 0000.0001)                    cg2d_init_res =    2.57369490580558E+05
(PID.TID 0000.0001)                       cg2d_iters =   169
(PID.TID 0000.0001)                         cg2d_res =    2.29644933671834E-12
(PID.TID 0000.0001) // =======================================================
(PID.TID 0000.0001) // Begin MONITOR dynamic field statistics
(PID.TID 0000.0001) // =======================================================
(PID.TID 0000.0001) %MON time_tsnumber                =                 17282
(PID.TID 0000.0001) %MON time_secondsf                =   7.7769000000000E+06
(PID.TID 0000.0001) %MON time_secondsi                =               7776900
(PID.TID 0000.0001) %MON dynstat_eta_max              =   2.7216246440818E+04
(PID.TID 0000.0001) %MON dynstat_eta_min              =  -3.4364323248019E+04
(PID.TID 0000.0001) %MON dynstat_eta_mean             =   9.9272100383827E-13
(PID.TID 0000.0001) %MON dynstat_eta_sd               =   2.4314150567005E+03
(PID.TID 0000.0001) %MON dynstat_eta_del2             =   3.0973755627151E+03
(PID.TID 0000.0001) %MON dynstat_uvel_max             =   7.0190311534189E+01
(PID.TID 0000.0001) %MON dynstat_uvel_min             =  -2.9914372462281E+01
(PID.TID 0000.0001) %MON dynstat_uvel_mean            =   7.2244894025956E+00
(PID.TID 0000.0001) %MON dynstat_uvel_sd              =   1.2848340131367E+01
(PID.TID 0000.0001) %MON dynstat_uvel_del2            =   6.1474463872284E-01
(PID.TID 0000.0001) %MON dynstat_vvel_max             =   3.5622349236831E+01
(PID.TID 0000.0001) %MON dynstat_vvel_min             =  -4.1394801891924E+01
(PID.TID 0000.0001) %MON dynstat_vvel_mean            =   1.2488265391850E-02
(PID.TID 0000.0001) %MON dynstat_vvel_sd              =   6.3371337068686E+00
(PID.TID 0000.0001) %MON dynstat_vvel_del2            =   4.5018522981914E-01
(PID.TID 0000.0001) %MON dynstat_wvel_max             =   1.0624210352635E+00
(PID.TID 0000.0001) %MON dynstat_wvel_min             =  -7.9193980041197E-01
(PID.TID 0000.0001) %MON dynstat_wvel_mean            =   5.1642742124263E-06
(PID.TID 0000.0001) %MON dynstat_wvel_sd              =   8.2161941530089E-02
(PID.TID 0000.0001) %MON dynstat_wvel_del2            =   1.7176530785019E-02
(PID.TID 0000.0001) %MON dynstat_theta_max            =   4.7737685310049E+02
(PID.TID 0000.0001) %MON dynstat_theta_min            =   2.3942821338092E+02
(PID.TID 0000.0001) %MON dynstat_theta_mean           =   3.3182958080569E+02
(PID.TID 0000.0001) %MON dynstat_theta_sd             =   5.1272913420188E+01
(PID.TID 0000.0001) %MON dynstat_theta_del2           =   6.8127520492304E-01
(PID.TID 0000.0001) %MON dynstat_salt_max             =   1.8183698550455E+01
(PID.TID 0000.0001) %MON dynstat_salt_min             =  -2.3843169053068E+00
(PID.TID 0000.0001) %MON dynstat_salt_mean            =   2.3367740847474E+00
(PID.TID 0000.0001) %MON dynstat_salt_sd              =   3.4292710997271E+00
(PID.TID 0000.0001) %MON dynstat_salt_del2            =   1.2152828911370E-01
(PID.TID 0000.0001) %MON advcfl_uvel_max              =   6.0013555772212E-01
(PID.TID 0000.0001) %MON advcfl_vvel_max              =   5.9572934183671E-02
(PID.TID 0000.0001) %MON advcfl_wvel_max              =   2.0240746953446E-02
(PID.TID 0000.0001) %MON advcfl_W_hf_max              =   7.0842614337062E-02
(PID.TID 0000.0001) %MON ke_max                       =   2.5182006260609E+03
(PID.TID 0000.0001) %MON ke_mean                      =   1.3724569507240E+02
(PID.TID 0000.0001) %MON ke_volint                    =   6.2998777696144E+21
(PID.TID 0000.0001) %MON ke_volmean                   =   1.2777518560439E+02
(PID.TID 0000.0001) // =======================================================
(PID.TID 0000.0001) // End MONITOR dynamic field statistics
(PID.TID 0000.0001) // =======================================================
 cg2d: Sum(rhs),rhsMax =  -3.47704087744205E-10  1.12781211870460E+03
(PID.TID 0000.0001)                    cg2d_init_res =    2.57382378255689E+05
(PID.TID 0000.0001)                       cg2d_iters =   169
(PID.TID 0000.0001)                         cg2d_res =    2.29477510093430E-12
(PID.TID 0000.0001) // =======================================================
(PID.TID 0000.0001) // Begin MONITOR dynamic field statistics
(PID.TID 0000.0001) // =======================================================
(PID.TID 0000.0001) %MON time_tsnumber                =                 17283
(PID.TID 0000.0001) %MON time_secondsf                =   7.7773500000000E+06
(PID.TID 0000.0001) %MON time_secondsi                =               7777350
(PID.TID 0000.0001) %MON dynstat_eta_max              =   2.7213425438828E+04
(PID.TID 0000.0001) %MON dynstat_eta_min              =  -3.4350839574689E+04
(PID.TID 0000.0001) %MON dynstat_eta_mean             =   8.0969263174743E-13
(PID.TID 0000.0001) %MON dynstat_eta_sd               =   2.4314056619930E+03
(PID.TID 0000.0001) %MON dynstat_eta_del2             =   3.0975009144282E+03
(PID.TID 0000.0001) %MON dynstat_uvel_max             =   7.0168963917740E+01
(PID.TID 0000.0001) %MON dynstat_uvel_min             =  -2.9865099113936E+01
(PID.TID 0000.0001) %MON dynstat_uvel_mean            =   7.2244509030757E+00
(PID.TID 0000.0001) %MON dynstat_uvel_sd              =   1.2848034467496E+01
(PID.TID 0000.0001) %MON dynstat_uvel_del2            =   6.1466110658928E-01
(PID.TID 0000.0001) %MON dynstat_vvel_max             =   3.5577173633443E+01
(PID.TID 0000.0001) %MON dynstat_vvel_min             =  -4.1389928858590E+01
(PID.TID 0000.0001) %MON dynstat_vvel_mean            =   1.2361588809288E-02
(PID.TID 0000.0001) %MON dynstat_vvel_sd              =   6.3365630666585E+00
(PID.TID 0000.0001) %MON dynstat_vvel_del2            =   4.5012641420587E-01
(PID.TID 0000.0001) %MON dynstat_wvel_max             =   1.0609362478038E+00
(PID.TID 0000.0001) %MON dynstat_wvel_min             =  -7.9438534461267E-01
(PID.TID 0000.0001) %MON dynstat_wvel_mean            =   3.8454614944183E-06
(PID.TID 0000.0001) %MON dynstat_wvel_sd              =   8.2145038054607E-02
(PID.TID 0000.0001) %MON dynstat_wvel_del2            =   1.7172958294200E-02
(PID.TID 0000.0001) %MON dynstat_theta_max            =   4.7739917168539E+02
(PID.TID 0000.0001) %MON dynstat_theta_min            =   2.3946750593521E+02
(PID.TID 0000.0001) %MON dynstat_theta_mean           =   3.3183037201001E+02
(PID.TID 0000.0001) %MON dynstat_theta_sd             =   5.1272190683263E+01
(PID.TID 0000.0001) %MON dynstat_theta_del2           =   6.8121666155904E-01
(PID.TID 0000.0001) %MON dynstat_salt_max             =   1.8184954009301E+01
(PID.TID 0000.0001) %MON dynstat_salt_min             =  -2.3882710296215E+00
(PID.TID 0000.0001) %MON dynstat_salt_mean            =   2.3368652200814E+00
(PID.TID 0000.0001) %MON dynstat_salt_sd              =   3.4292230728419E+00
(PID.TID 0000.0001) %MON dynstat_salt_del2            =   1.2152657586854E-01
(PID.TID 0000.0001) %MON advcfl_uvel_max              =   5.9926640110139E-01
(PID.TID 0000.0001) %MON advcfl_vvel_max              =   5.9565921204243E-02
(PID.TID 0000.0001) %MON advcfl_wvel_max              =   2.0178804479144E-02
(PID.TID 0000.0001) %MON advcfl_W_hf_max              =   7.0625815677004E-02
(PID.TID 0000.0001) %MON ke_max                       =   2.5166624351445E+03
(PID.TID 0000.0001) %MON ke_mean                      =   1.3722695101247E+02
(PID.TID 0000.0001) %MON ke_volint                    =   6.2994951590411E+21
(PID.TID 0000.0001) %MON ke_volmean                   =   1.2776742543208E+02
(PID.TID 0000.0001) // =======================================================
(PID.TID 0000.0001) // End MONITOR dynamic field statistics
(PID.TID 0000.0001) // =======================================================
 cg2d: Sum(rhs),rhsMax =   2.60008903296693E-10  1.12791773884977E+03
(PID.TID 0000.0001)                    cg2d_init_res =    2.57395229319589E+05
(PID.TID 0000.0001)                       cg2d_iters =   169
(PID.TID 0000.0001)                         cg2d_res =    2.29270629738210E-12
(PID.TID 0000.0001) // =======================================================
(PID.TID 0000.0001) // Begin MONITOR dynamic field statistics
(PID.TID 0000.0001) // =======================================================
(PID.TID 0000.0001) %MON time_tsnumber                =                 17284
(PID.TID 0000.0001) %MON time_secondsf                =   7.7778000000000E+06
(PID.TID 0000.0001) %MON time_secondsi                =               7777800
(PID.TID 0000.0001) %MON dynstat_eta_max              =   2.7210534109054E+04
(PID.TID 0000.0001) %MON dynstat_eta_min              =  -3.4337468967560E+04
(PID.TID 0000.0001) %MON dynstat_eta_mean             =   5.3460142906159E-13
(PID.TID 0000.0001) %MON dynstat_eta_sd               =   2.4313941439754E+03
(PID.TID 0000.0001) %MON dynstat_eta_del2             =   3.0976196409450E+03
(PID.TID 0000.0001) %MON dynstat_uvel_max             =   7.0146756144388E+01
(PID.TID 0000.0001) %MON dynstat_uvel_min             =  -2.9815700473473E+01
(PID.TID 0000.0001) %MON dynstat_uvel_mean            =   7.2244139259282E+00
(PID.TID 0000.0001) %MON dynstat_uvel_sd              =   1.2847717257814E+01
(PID.TID 0000.0001) %MON dynstat_uvel_del2            =   6.1457994975242E-01
(PID.TID 0000.0001) %MON dynstat_vvel_max             =   3.5527208895641E+01
(PID.TID 0000.0001) %MON dynstat_vvel_min             =  -4.1380402243220E+01
(PID.TID 0000.0001) %MON dynstat_vvel_mean            =   1.2183695765375E-02
(PID.TID 0000.0001) %MON dynstat_vvel_sd              =   6.3359903152356E+00
(PID.TID 0000.0001) %MON dynstat_vvel_del2            =   4.5006317708665E-01
(PID.TID 0000.0001) %MON dynstat_wvel_max             =   1.0594424997860E+00
(PID.TID 0000.0001) %MON dynstat_wvel_min             =  -7.9680386723101E-01
(PID.TID 0000.0001) %MON dynstat_wvel_mean            =   2.4337898232733E-06
(PID.TID 0000.0001) %MON dynstat_wvel_sd              =   8.2135734451647E-02
(PID.TID 0000.0001) %MON dynstat_wvel_del2            =   1.7172210875769E-02
(PID.TID 0000.0001) %MON dynstat_theta_max            =   4.7741956927956E+02
(PID.TID 0000.0001) %MON dynstat_theta_min            =   2.3950665424807E+02
(PID.TID 0000.0001) %MON dynstat_theta_mean           =   3.3183117581572E+02
(PID.TID 0000.0001) %MON dynstat_theta_sd             =   5.1271468358698E+01
(PID.TID 0000.0001) %MON dynstat_theta_del2           =   6.8116880869075E-01
(PID.TID 0000.0001) %MON dynstat_salt_max             =   1.8186194671277E+01
(PID.TID 0000.0001) %MON dynstat_salt_min             =  -2.3921493228670E+00
(PID.TID 0000.0001) %MON dynstat_salt_mean            =   2.3369490484872E+00
(PID.TID 0000.0001) %MON dynstat_salt_sd              =   3.4291797897114E+00
(PID.TID 0000.0001) %MON dynstat_salt_del2            =   1.2152049101622E-01
(PID.TID 0000.0001) %MON advcfl_uvel_max              =   5.9839431417698E-01
(PID.TID 0000.0001) %MON advcfl_vvel_max              =   5.9552211066630E-02
(PID.TID 0000.0001) %MON advcfl_wvel_max              =   2.0120601342251E-02
(PID.TID 0000.0001) %MON advcfl_W_hf_max              =   7.0422104697879E-02
(PID.TID 0000.0001) %MON ke_max                       =   2.5150833186676E+03
(PID.TID 0000.0001) %MON ke_mean                      =   1.3720791743887E+02
(PID.TID 0000.0001) %MON ke_volint                    =   6.2991051614671E+21
(PID.TID 0000.0001) %MON ke_volmean                   =   1.2775951543538E+02
(PID.TID 0000.0001) // =======================================================
(PID.TID 0000.0001) // End MONITOR dynamic field statistics
(PID.TID 0000.0001) // =======================================================
 cg2d: Sum(rhs),rhsMax =  -1.83828063882174E-10  1.12800680205095E+03
(PID.TID 0000.0001)                    cg2d_init_res =    2.57408043511704E+05
(PID.TID 0000.0001)                       cg2d_iters =   169
(PID.TID 0000.0001)                         cg2d_res =    2.29027460060980E-12
(PID.TID 0000.0001) // =======================================================
(PID.TID 0000.0001) // Begin MONITOR dynamic field statistics
(PID.TID 0000.0001) // =======================================================
(PID.TID 0000.0001) %MON time_tsnumber                =                 17285
(PID.TID 0000.0001) %MON time_secondsf                =   7.7782500000000E+06
(PID.TID 0000.0001) %MON time_secondsi                =               7778250
(PID.TID 0000.0001) %MON dynstat_eta_max              =   2.7207627339763E+04
(PID.TID 0000.0001) %MON dynstat_eta_min              =  -3.4324137748389E+04
(PID.TID 0000.0001) %MON dynstat_eta_mean             =   4.4464436405473E-13
(PID.TID 0000.0001) %MON dynstat_eta_sd               =   2.4313803595692E+03
(PID.TID 0000.0001) %MON dynstat_eta_del2             =   3.0977337149981E+03
(PID.TID 0000.0001) %MON dynstat_uvel_max             =   7.0123656431251E+01
(PID.TID 0000.0001) %MON dynstat_uvel_min             =  -2.9766070459305E+01
(PID.TID 0000.0001) %MON dynstat_uvel_mean            =   7.2243784741323E+00
(PID.TID 0000.0001) %MON dynstat_uvel_sd              =   1.2847387966893E+01
(PID.TID 0000.0001) %MON dynstat_uvel_del2            =   6.1448716295614E-01
(PID.TID 0000.0001) %MON dynstat_vvel_max             =   3.5472820687030E+01
(PID.TID 0000.0001) %MON dynstat_vvel_min             =  -4.1366291627400E+01
(PID.TID 0000.0001) %MON dynstat_vvel_mean            =   1.1955802633019E-02
(PID.TID 0000.0001) %MON dynstat_vvel_sd              =   6.3354120062035E+00
(PID.TID 0000.0001) %MON dynstat_vvel_del2            =   4.4999872495736E-01
(PID.TID 0000.0001) %MON dynstat_wvel_max             =   1.0579074035823E+00
(PID.TID 0000.0001) %MON dynstat_wvel_min             =  -7.9904593201610E-01
(PID.TID 0000.0001) %MON dynstat_wvel_mean            =   1.0828525519257E-06
(PID.TID 0000.0001) %MON dynstat_wvel_sd              =   8.2127628320618E-02
(PID.TID 0000.0001) %MON dynstat_wvel_del2            =   1.7171366665483E-02
(PID.TID 0000.0001) %MON dynstat_theta_max            =   4.7743781265713E+02
(PID.TID 0000.0001) %MON dynstat_theta_min            =   2.3954558581573E+02
(PID.TID 0000.0001) %MON dynstat_theta_mean           =   3.3183193641730E+02
(PID.TID 0000.0001) %MON dynstat_theta_sd             =   5.1270766943929E+01
(PID.TID 0000.0001) %MON dynstat_theta_del2           =   6.8112223756189E-01
(PID.TID 0000.0001) %MON dynstat_salt_max             =   1.8187415468711E+01
(PID.TID 0000.0001) %MON dynstat_salt_min             =  -2.3959493237955E+00
(PID.TID 0000.0001) %MON dynstat_salt_mean            =   2.3370450953935E+00
(PID.TID 0000.0001) %MON dynstat_salt_sd              =   3.4291439549094E+00
(PID.TID 0000.0001) %MON dynstat_salt_del2            =   1.2152577897385E-01
(PID.TID 0000.0001) %MON advcfl_uvel_max              =   5.9751968658442E-01
(PID.TID 0000.0001) %MON advcfl_vvel_max              =   5.9531903908506E-02
(PID.TID 0000.0001) %MON advcfl_wvel_max              =   2.0067264214820E-02
(PID.TID 0000.0001) %MON advcfl_W_hf_max              =   7.0235424751869E-02
(PID.TID 0000.0001) %MON ke_max                       =   2.5134580431882E+03
(PID.TID 0000.0001) %MON ke_mean                      =   1.3718858491906E+02
(PID.TID 0000.0001) %MON ke_volint                    =   6.2987063773717E+21
(PID.TID 0000.0001) %MON ke_volmean                   =   1.2775142722896E+02
(PID.TID 0000.0001) // =======================================================
(PID.TID 0000.0001) // End MONITOR dynamic field statistics
(PID.TID 0000.0001) // =======================================================
 cg2d: Sum(rhs),rhsMax =   3.81028542051354E-10  1.12808799582981E+03
(PID.TID 0000.0001)                    cg2d_init_res =    2.57420821908308E+05
(PID.TID 0000.0001)                       cg2d_iters =   169
(PID.TID 0000.0001)                         cg2d_res =    2.28744576151495E-12
(PID.TID 0000.0001) // =======================================================
(PID.TID 0000.0001) // Begin MONITOR dynamic field statistics
(PID.TID 0000.0001) // =======================================================
(PID.TID 0000.0001) %MON time_tsnumber                =                 17286
(PID.TID 0000.0001) %MON time_secondsf                =   7.7787000000000E+06
(PID.TID 0000.0001) %MON time_secondsi                =               7778700
(PID.TID 0000.0001) %MON dynstat_eta_max              =   2.7204745324583E+04
(PID.TID 0000.0001) %MON dynstat_eta_min              =  -3.4310787655294E+04
(PID.TID 0000.0001) %MON dynstat_eta_mean             =   7.2273233580854E-13
(PID.TID 0000.0001) %MON dynstat_eta_sd               =   2.4313646931852E+03
(PID.TID 0000.0001) %MON dynstat_eta_del2             =   3.0978500517875E+03
(PID.TID 0000.0001) %MON dynstat_uvel_max             =   7.0099615531607E+01
(PID.TID 0000.0001) %MON dynstat_uvel_min             =  -2.9716104380169E+01
(PID.TID 0000.0001) %MON dynstat_uvel_mean            =   7.2243443155664E+00
(PID.TID 0000.0001) %MON dynstat_uvel_sd              =   1.2847047698382E+01
(PID.TID 0000.0001) %MON dynstat_uvel_del2            =   6.1439235733035E-01
(PID.TID 0000.0001) %MON dynstat_vvel_max             =   3.5414220524951E+01
(PID.TID 0000.0001) %MON dynstat_vvel_min             =  -4.1347692911730E+01
(PID.TID 0000.0001) %MON dynstat_vvel_mean            =   1.1679073553654E-02
(PID.TID 0000.0001) %MON dynstat_vvel_sd              =   6.3348229847320E+00
(PID.TID 0000.0001) %MON dynstat_vvel_del2            =   4.4993250074204E-01
(PID.TID 0000.0001) %MON dynstat_wvel_max             =   1.0563072932647E+00
(PID.TID 0000.0001) %MON dynstat_wvel_min             =  -8.0111975525718E-01
(PID.TID 0000.0001) %MON dynstat_wvel_mean            =  -6.9221658121373E-08
(PID.TID 0000.0001) %MON dynstat_wvel_sd              =   8.2115313966895E-02
(PID.TID 0000.0001) %MON dynstat_wvel_del2            =   1.7168810286340E-02
(PID.TID 0000.0001) %MON dynstat_theta_max            =   4.7745367017656E+02
(PID.TID 0000.0001) %MON dynstat_theta_min            =   2.3958425773191E+02
(PID.TID 0000.0001) %MON dynstat_theta_mean           =   3.3183270265654E+02
(PID.TID 0000.0001) %MON dynstat_theta_sd             =   5.1270080616927E+01
(PID.TID 0000.0001) %MON dynstat_theta_del2           =   6.8107057745626E-01
(PID.TID 0000.0001) %MON dynstat_salt_max             =   1.8188622530254E+01
(PID.TID 0000.0001) %MON dynstat_salt_min             =  -2.3996703594734E+00
(PID.TID 0000.0001) %MON dynstat_salt_mean            =   2.3371375865287E+00
(PID.TID 0000.0001) %MON dynstat_salt_sd              =   3.4291389321365E+00
(PID.TID 0000.0001) %MON dynstat_salt_del2            =   1.2152717910815E-01
(PID.TID 0000.0001) %MON advcfl_uvel_max              =   5.9664347454136E-01
(PID.TID 0000.0001) %MON advcfl_vvel_max              =   5.9505137744304E-02
(PID.TID 0000.0001) %MON advcfl_wvel_max              =   2.0021307339940E-02
(PID.TID 0000.0001) %MON advcfl_W_hf_max              =   7.0074575689788E-02
(PID.TID 0000.0001) %MON ke_max                       =   2.5117808332558E+03
(PID.TID 0000.0001) %MON ke_mean                      =   1.3716895199066E+02
(PID.TID 0000.0001) %MON ke_volint                    =   6.2982978271749E+21
(PID.TID 0000.0001) %MON ke_volmean                   =   1.2774314094482E+02
(PID.TID 0000.0001) // =======================================================
(PID.TID 0000.0001) // End MONITOR dynamic field statistics
(PID.TID 0000.0001) // =======================================================
 cg2d: Sum(rhs),rhsMax =  -2.30240715382024E-10  1.12817379988348E+03
(PID.TID 0000.0001)                    cg2d_init_res =    2.57433566252040E+05
(PID.TID 0000.0001)                       cg2d_iters =   169
(PID.TID 0000.0001)                         cg2d_res =    2.28409256902669E-12
(PID.TID 0000.0001) // =======================================================
(PID.TID 0000.0001) // Begin MONITOR dynamic field statistics
(PID.TID 0000.0001) // =======================================================
(PID.TID 0000.0001) %MON time_tsnumber                =                 17287
(PID.TID 0000.0001) %MON time_secondsf                =   7.7791500000000E+06
(PID.TID 0000.0001) %MON time_secondsi                =               7779150
(PID.TID 0000.0001) %MON dynstat_eta_max              =   2.7201908901580E+04
(PID.TID 0000.0001) %MON dynstat_eta_min              =  -3.4297383589221E+04
(PID.TID 0000.0001) %MON dynstat_eta_mean             =   5.0371634514958E-13
(PID.TID 0000.0001) %MON dynstat_eta_sd               =   2.4313469275410E+03
(PID.TID 0000.0001) %MON dynstat_eta_del2             =   3.0979623103144E+03
(PID.TID 0000.0001) %MON dynstat_uvel_max             =   7.0074586081059E+01
(PID.TID 0000.0001) %MON dynstat_uvel_min             =  -2.9665744132790E+01
(PID.TID 0000.0001) %MON dynstat_uvel_mean            =   7.2243108549705E+00
(PID.TID 0000.0001) %MON dynstat_uvel_sd              =   1.2846697236322E+01
(PID.TID 0000.0001) %MON dynstat_uvel_del2            =   6.1430014646639E-01
(PID.TID 0000.0001) %MON dynstat_vvel_max             =   3.5351520771609E+01
(PID.TID 0000.0001) %MON dynstat_vvel_min             =  -4.1324659217133E+01
(PID.TID 0000.0001) %MON dynstat_vvel_mean            =   1.1354858179264E-02
(PID.TID 0000.0001) %MON dynstat_vvel_sd              =   6.3342182927669E+00
(PID.TID 0000.0001) %MON dynstat_vvel_del2            =   4.4985471266936E-01
(PID.TID 0000.0001) %MON dynstat_wvel_max             =   1.0546287576562E+00
(PID.TID 0000.0001) %MON dynstat_wvel_min             =  -8.0310596015085E-01
(PID.TID 0000.0001) %MON dynstat_wvel_mean            =  -1.3448424778031E-06
(PID.TID 0000.0001) %MON dynstat_wvel_sd              =   8.2099602436679E-02
(PID.TID 0000.0001) %MON dynstat_wvel_del2            =   1.7166367091315E-02
(PID.TID 0000.0001) %MON dynstat_theta_max            =   4.7746691349943E+02
(PID.TID 0000.0001) %MON dynstat_theta_min            =   2.3962265490984E+02
(PID.TID 0000.0001) %MON dynstat_theta_mean           =   3.3183344107555E+02
(PID.TID 0000.0001) %MON dynstat_theta_sd             =   5.1269411122256E+01
(PID.TID 0000.0001) %MON dynstat_theta_del2           =   6.8100405268621E-01
(PID.TID 0000.0001) %MON dynstat_salt_max             =   1.8189831456618E+01
(PID.TID 0000.0001) %MON dynstat_salt_min             =  -2.4033171331496E+00
(PID.TID 0000.0001) %MON dynstat_salt_mean            =   2.3372370234616E+00
(PID.TID 0000.0001) %MON dynstat_salt_sd              =   3.4291481123303E+00
(PID.TID 0000.0001) %MON dynstat_salt_del2            =   1.2152952326751E-01
(PID.TID 0000.0001) %MON advcfl_uvel_max              =   5.9576706886735E-01
(PID.TID 0000.0001) %MON advcfl_vvel_max              =   5.9471989022495E-02
(PID.TID 0000.0001) %MON advcfl_wvel_max              =   1.9972503997942E-02
(PID.TID 0000.0001) %MON advcfl_W_hf_max              =   6.9903763992796E-02
(PID.TID 0000.0001) %MON ke_max                       =   2.5100467029544E+03
(PID.TID 0000.0001) %MON ke_mean                      =   1.3714901240741E+02
(PID.TID 0000.0001) %MON ke_volint                    =   6.2978782636490E+21
(PID.TID 0000.0001) %MON ke_volmean                   =   1.2773463128648E+02
(PID.TID 0000.0001) // =======================================================
(PID.TID 0000.0001) // End MONITOR dynamic field statistics
(PID.TID 0000.0001) // =======================================================
 cg2d: Sum(rhs),rhsMax =  -5.95843374640026E-10  1.12827335618175E+03
(PID.TID 0000.0001)                    cg2d_init_res =    2.57446271264213E+05
(PID.TID 0000.0001)                       cg2d_iters =   169
(PID.TID 0000.0001)                         cg2d_res =    2.28000239363633E-12
(PID.TID 0000.0001) // =======================================================
(PID.TID 0000.0001) // Begin MONITOR dynamic field statistics
(PID.TID 0000.0001) // =======================================================
(PID.TID 0000.0001) %MON time_tsnumber                =                 17288
(PID.TID 0000.0001) %MON time_secondsf                =   7.7796000000000E+06
(PID.TID 0000.0001) %MON time_secondsi                =               7779600
(PID.TID 0000.0001) %MON dynstat_eta_max              =   2.7199124403943E+04
(PID.TID 0000.0001) %MON dynstat_eta_min              =  -3.4283909579645E+04
(PID.TID 0000.0001) %MON dynstat_eta_mean             =   5.4690051543533E-13
(PID.TID 0000.0001) %MON dynstat_eta_sd               =   2.4313266288978E+03
(PID.TID 0000.0001) %MON dynstat_eta_del2             =   3.0980677936032E+03
(PID.TID 0000.0001) %MON dynstat_uvel_max             =   7.0048538555968E+01
(PID.TID 0000.0001) %MON dynstat_uvel_min             =  -2.9614996661222E+01
(PID.TID 0000.0001) %MON dynstat_uvel_mean            =   7.2242773591854E+00
(PID.TID 0000.0001) %MON dynstat_uvel_sd              =   1.2846337766931E+01
(PID.TID 0000.0001) %MON dynstat_uvel_del2            =   6.1421264157773E-01
(PID.TID 0000.0001) %MON dynstat_vvel_max             =   3.5284787475552E+01
(PID.TID 0000.0001) %MON dynstat_vvel_min             =  -4.1297189304983E+01
(PID.TID 0000.0001) %MON dynstat_vvel_mean            =   1.0984226453667E-02
(PID.TID 0000.0001) %MON dynstat_vvel_sd              =   6.3335926884416E+00
(PID.TID 0000.0001) %MON dynstat_vvel_del2            =   4.4976399491224E-01
(PID.TID 0000.0001) %MON dynstat_wvel_max             =   1.0528671705274E+00
(PID.TID 0000.0001) %MON dynstat_wvel_min             =  -8.0508654988240E-01
(PID.TID 0000.0001) %MON dynstat_wvel_mean            =  -2.5209828178963E-06
(PID.TID 0000.0001) %MON dynstat_wvel_sd              =   8.2079971580470E-02
(PID.TID 0000.0001) %MON dynstat_wvel_del2            =   1.7164022352486E-02
(PID.TID 0000.0001) %MON dynstat_theta_max            =   4.7747732195703E+02
(PID.TID 0000.0001) %MON dynstat_theta_min            =   2.3966076908734E+02
(PID.TID 0000.0001) %MON dynstat_theta_mean           =   3.3183415453319E+02
(PID.TID 0000.0001) %MON dynstat_theta_sd             =   5.1268746272665E+01
(PID.TID 0000.0001) %MON dynstat_theta_del2           =   6.8094713466872E-01
(PID.TID 0000.0001) %MON dynstat_salt_max             =   1.8191061281964E+01
(PID.TID 0000.0001) %MON dynstat_salt_min             =  -2.4068869519066E+00
(PID.TID 0000.0001) %MON dynstat_salt_mean            =   2.3373414290529E+00
(PID.TID 0000.0001) %MON dynstat_salt_sd              =   3.4291574385747E+00
(PID.TID 0000.0001) %MON dynstat_salt_del2            =   1.2153147702086E-01
(PID.TID 0000.0001) %MON advcfl_uvel_max              =   5.9489203178585E-01
(PID.TID 0000.0001) %MON advcfl_vvel_max              =   5.9432455960523E-02
(PID.TID 0000.0001) %MON advcfl_wvel_max              =   1.9928648023782E-02
(PID.TID 0000.0001) %MON advcfl_W_hf_max              =   6.9750268083238E-02
(PID.TID 0000.0001) %MON ke_max                       =   2.5082523634114E+03
(PID.TID 0000.0001) %MON ke_mean                      =   1.3712876499552E+02
(PID.TID 0000.0001) %MON ke_volint                    =   6.2974465566277E+21
(PID.TID 0000.0001) %MON ke_volmean                   =   1.2772587533172E+02
(PID.TID 0000.0001) // =======================================================
(PID.TID 0000.0001) // End MONITOR dynamic field statistics
(PID.TID 0000.0001) // =======================================================
 cg2d: Sum(rhs),rhsMax =  -1.85220727644264E-10  1.12837110913797E+03
(PID.TID 0000.0001)                    cg2d_init_res =    2.57458951868762E+05
(PID.TID 0000.0001)                       cg2d_iters =   169
(PID.TID 0000.0001)                         cg2d_res =    2.27490208395973E-12
(PID.TID 0000.0001) // =======================================================
(PID.TID 0000.0001) // Begin MONITOR dynamic field statistics
(PID.TID 0000.0001) // =======================================================
(PID.TID 0000.0001) %MON time_tsnumber                =                 17289
(PID.TID 0000.0001) %MON time_secondsf                =   7.7800500000000E+06
(PID.TID 0000.0001) %MON time_secondsi                =               7780050
(PID.TID 0000.0001) %MON dynstat_eta_max              =   2.7196390057176E+04
(PID.TID 0000.0001) %MON dynstat_eta_min              =  -3.4270361186217E+04
(PID.TID 0000.0001) %MON dynstat_eta_mean             =   3.3768614220701E-13
(PID.TID 0000.0001) %MON dynstat_eta_sd               =   2.4313035061817E+03
(PID.TID 0000.0001) %MON dynstat_eta_del2             =   3.0981675498764E+03
(PID.TID 0000.0001) %MON dynstat_uvel_max             =   7.0021469248622E+01
(PID.TID 0000.0001) %MON dynstat_uvel_min             =  -2.9607388474910E+01
(PID.TID 0000.0001) %MON dynstat_uvel_mean            =   7.2242430910084E+00
(PID.TID 0000.0001) %MON dynstat_uvel_sd              =   1.2845970234008E+01
(PID.TID 0000.0001) %MON dynstat_uvel_del2            =   6.1412466914490E-01
(PID.TID 0000.0001) %MON dynstat_vvel_max             =   3.5214071883572E+01
(PID.TID 0000.0001) %MON dynstat_vvel_min             =  -4.1265247303389E+01
(PID.TID 0000.0001) %MON dynstat_vvel_mean            =   1.0568637400181E-02
(PID.TID 0000.0001) %MON dynstat_vvel_sd              =   6.3329427488746E+00
(PID.TID 0000.0001) %MON dynstat_vvel_del2            =   4.4966695209483E-01
(PID.TID 0000.0001) %MON dynstat_wvel_max             =   1.0510238588971E+00
(PID.TID 0000.0001) %MON dynstat_wvel_min             =  -8.0711511469727E-01
(PID.TID 0000.0001) %MON dynstat_wvel_mean            =  -3.4436010920413E-06
(PID.TID 0000.0001) %MON dynstat_wvel_sd              =   8.2054669966481E-02
(PID.TID 0000.0001) %MON dynstat_wvel_del2            =   1.7159626799355E-02
(PID.TID 0000.0001) %MON dynstat_theta_max            =   4.7748468592776E+02
(PID.TID 0000.0001) %MON dynstat_theta_min            =   2.3969859412646E+02
(PID.TID 0000.0001) %MON dynstat_theta_mean           =   3.3183485403663E+02
(PID.TID 0000.0001) %MON dynstat_theta_sd             =   5.1268094756923E+01
(PID.TID 0000.0001) %MON dynstat_theta_del2           =   6.8087982425593E-01
(PID.TID 0000.0001) %MON dynstat_salt_max             =   1.8192328343020E+01
(PID.TID 0000.0001) %MON dynstat_salt_min             =  -2.4103830314508E+00
(PID.TID 0000.0001) %MON dynstat_salt_mean            =   2.3374478319919E+00
(PID.TID 0000.0001) %MON dynstat_salt_sd              =   3.4291734842193E+00
(PID.TID 0000.0001) %MON dynstat_salt_del2            =   1.2153695265650E-01
(PID.TID 0000.0001) %MON advcfl_uvel_max              =   5.9401990297377E-01
(PID.TID 0000.0001) %MON advcfl_vvel_max              =   5.9386486933697E-02
(PID.TID 0000.0001) %MON advcfl_wvel_max              =   1.9884333949239E-02
(PID.TID 0000.0001) %MON advcfl_W_hf_max              =   6.9595168822337E-02
(PID.TID 0000.0001) %MON ke_max                       =   2.5064155471862E+03
(PID.TID 0000.0001) %MON ke_mean                      =   1.3710821561735E+02
(PID.TID 0000.0001) %MON ke_volint                    =   6.2970019858015E+21
(PID.TID 0000.0001) %MON ke_volmean                   =   1.2771685847109E+02
(PID.TID 0000.0001) // =======================================================
(PID.TID 0000.0001) // End MONITOR dynamic field statistics
(PID.TID 0000.0001) // =======================================================
 cg2d: Sum(rhs),rhsMax =  -4.30588897870621E-10  1.12849147286516E+03
(PID.TID 0000.0001)                    cg2d_init_res =    2.57471593353637E+05
(PID.TID 0000.0001)                       cg2d_iters =   169
(PID.TID 0000.0001)                         cg2d_res =    2.26847021172200E-12
(PID.TID 0000.0001) // =======================================================
(PID.TID 0000.0001) // Begin MONITOR dynamic field statistics
(PID.TID 0000.0001) // =======================================================
(PID.TID 0000.0001) %MON time_tsnumber                =                 17290
(PID.TID 0000.0001) %MON time_secondsf                =   7.7805000000000E+06
(PID.TID 0000.0001) %MON time_secondsi                =               7780500
(PID.TID 0000.0001) %MON dynstat_eta_max              =   2.7193699994351E+04
(PID.TID 0000.0001) %MON dynstat_eta_min              =  -3.4256740328091E+04
(PID.TID 0000.0001) %MON dynstat_eta_mean             =   2.3192535078618E-13
(PID.TID 0000.0001) %MON dynstat_eta_sd               =   2.4312772304827E+03
(PID.TID 0000.0001) %MON dynstat_eta_del2             =   3.0982615528286E+03
(PID.TID 0000.0001) %MON dynstat_uvel_max             =   7.0017725599691E+01
(PID.TID 0000.0001) %MON dynstat_uvel_min             =  -2.9607373079524E+01
(PID.TID 0000.0001) %MON dynstat_uvel_mean            =   7.2242073094547E+00
(PID.TID 0000.0001) %MON dynstat_uvel_sd              =   1.2845594042236E+01
(PID.TID 0000.0001) %MON dynstat_uvel_del2            =   6.1403529154437E-01
(PID.TID 0000.0001) %MON dynstat_vvel_max             =   3.5139434912599E+01
(PID.TID 0000.0001) %MON dynstat_vvel_min             =  -4.1228792815092E+01
(PID.TID 0000.0001) %MON dynstat_vvel_mean            =   1.0108779072060E-02
(PID.TID 0000.0001) %MON dynstat_vvel_sd              =   6.3322668354490E+00
(PID.TID 0000.0001) %MON dynstat_vvel_del2            =   4.4957709481672E-01
(PID.TID 0000.0001) %MON dynstat_wvel_max             =   1.0491040618635E+00
(PID.TID 0000.0001) %MON dynstat_wvel_min             =  -8.0921807712809E-01
(PID.TID 0000.0001) %MON dynstat_wvel_mean            =  -4.0692560211937E-06
(PID.TID 0000.0001) %MON dynstat_wvel_sd              =   8.2026759637577E-02
(PID.TID 0000.0001) %MON dynstat_wvel_del2            =   1.7154533731672E-02
(PID.TID 0000.0001) %MON dynstat_theta_max            =   4.7748880870199E+02
(PID.TID 0000.0001) %MON dynstat_theta_min            =   2.3973612692702E+02
(PID.TID 0000.0001) %MON dynstat_theta_mean           =   3.3183547503961E+02
(PID.TID 0000.0001) %MON dynstat_theta_sd             =   5.1267471569706E+01
(PID.TID 0000.0001) %MON dynstat_theta_del2           =   6.8077733535149E-01
(PID.TID 0000.0001) %MON dynstat_salt_max             =   1.8193641305588E+01
(PID.TID 0000.0001) %MON dynstat_salt_min             =  -2.4138044609983E+00
(PID.TID 0000.0001) %MON dynstat_salt_mean            =   2.3375787768869E+00
(PID.TID 0000.0001) %MON dynstat_salt_sd              =   3.4292359813604E+00
(PID.TID 0000.0001) %MON dynstat_salt_del2            =   1.2155541941929E-01
(PID.TID 0000.0001) %MON advcfl_uvel_max              =   5.9315213175610E-01
(PID.TID 0000.0001) %MON advcfl_vvel_max              =   5.9334023804686E-02
(PID.TID 0000.0001) %MON advcfl_wvel_max              =   1.9847571593586E-02
(PID.TID 0000.0001) %MON advcfl_W_hf_max              =   6.9466500577550E-02
(PID.TID 0000.0001) %MON ke_max                       =   2.5051669498231E+03
(PID.TID 0000.0001) %MON ke_mean                      =   1.3708736346059E+02
(PID.TID 0000.0001) %MON ke_volint                    =   6.2965434136527E+21
(PID.TID 0000.0001) %MON ke_volmean                   =   1.2770755763327E+02
(PID.TID 0000.0001) // =======================================================
(PID.TID 0000.0001) // End MONITOR dynamic field statistics
(PID.TID 0000.0001) // =======================================================
(PID.TID 0000.0001)  Seconds in section "ALL                [THE_MODEL_MAIN]":
(PID.TID 0000.0001)          User time:   25.49000000022352
(PID.TID 0000.0001)        System time:  0.3499999940395355
(PID.TID 0000.0001)    Wall clock time:   26.23906695842743
(PID.TID 0000.0001)         No. starts:           1
(PID.TID 0000.0001)          No. stops:           1
(PID.TID 0000.0001)  Seconds in section "INITIALISE_FIXED   [THE_MODEL_MAIN]":
(PID.TID 0000.0001)          User time:  0.2299999948590994
(PID.TID 0000.0001)        System time:  7.0000000298023224E-002
(PID.TID 0000.0001)    Wall clock time:  0.5148439407348633
(PID.TID 0000.0001)         No. starts:           1
(PID.TID 0000.0001)          No. stops:           1
(PID.TID 0000.0001)  Seconds in section "THE_MAIN_LOOP      [THE_MODEL_MAIN]":
(PID.TID 0000.0001)          User time:   25.19999863207340
(PID.TID 0000.0001)        System time:  0.2499999925494194
(PID.TID 0000.0001)    Wall clock time:   25.62260603904724
(PID.TID 0000.0001)         No. starts:           1
(PID.TID 0000.0001)          No. stops:           1
(PID.TID 0000.0001)  Seconds in section "INITIALISE_VARIA    [THE_MAIN_LOOP]":
(PID.TID 0000.0001)          User time:  0.1000000089406967
(PID.TID 0000.0001)        System time:  0.1099999919533730
(PID.TID 0000.0001)    Wall clock time:  0.2127380371093750
(PID.TID 0000.0001)         No. starts:           1
(PID.TID 0000.0001)          No. stops:           1
(PID.TID 0000.0001)  Seconds in section "WRITE_STATE         [THE_MAIN_LOOP]":
(PID.TID 0000.0001)          User time:  1.9999980926513672E-002
(PID.TID 0000.0001)        System time:  1.9999995827674866E-002
(PID.TID 0000.0001)    Wall clock time:  0.1154990196228027
(PID.TID 0000.0001)         No. starts:           1
(PID.TID 0000.0001)          No. stops:           1
(PID.TID 0000.0001)  Seconds in section "MONITOR             [THE_MAIN_LOOP]":
(PID.TID 0000.0001)          User time:  0.1299999952316284
(PID.TID 0000.0001)        System time:  0.0000000000000000E+000
(PID.TID 0000.0001)    Wall clock time:  0.1308549642562866
(PID.TID 0000.0001)         No. starts:           1
(PID.TID 0000.0001)          No. stops:           1
(PID.TID 0000.0001)  Seconds in section "MAIN LOOP           [THE_MAIN_LOOP]":
(PID.TID 0000.0001)          User time:   24.94999864697456
(PID.TID 0000.0001)        System time:  0.1200000047683716
(PID.TID 0000.0001)    Wall clock time:   25.16276502609253
(PID.TID 0000.0001)         No. starts:           1
(PID.TID 0000.0001)          No. stops:           1
(PID.TID 0000.0001)  Seconds in section "FORWARD_STEP        [THE_MAIN_LOOP]":
(PID.TID 0000.0001)          User time:   24.94999864697456
(PID.TID 0000.0001)        System time:  0.1200000047683716
(PID.TID 0000.0001)    Wall clock time:   25.16114604473114
(PID.TID 0000.0001)         No. starts:          10
(PID.TID 0000.0001)          No. stops:          10
(PID.TID 0000.0001)  Seconds in section "EXTERNAL_FIELDS_LOAD[THE_MAIN_LOOP]":
(PID.TID 0000.0001)          User time:  9.9999904632568359E-003
(PID.TID 0000.0001)        System time:  0.0000000000000000E+000
(PID.TID 0000.0001)    Wall clock time:  1.3917922973632813E-002
(PID.TID 0000.0001)         No. starts:          10
(PID.TID 0000.0001)          No. stops:          10
(PID.TID 0000.0001)  Seconds in section "THERMODYNAMICS      [THE_MAIN_LOOP]":
(PID.TID 0000.0001)          User time:   7.440000295639038
(PID.TID 0000.0001)        System time:  9.0000003576278687E-002
(PID.TID 0000.0001)    Wall clock time:   7.546811103820801
(PID.TID 0000.0001)         No. starts:          10
(PID.TID 0000.0001)          No. stops:          10
(PID.TID 0000.0001)  Seconds in section "AIM_DO_ATMOS_PHYS      [DYNAMICS]":
(PID.TID 0000.0001)          User time:   4.829999148845673
(PID.TID 0000.0001)        System time:  6.9999992847442627E-002
(PID.TID 0000.0001)    Wall clock time:   4.900784134864807
(PID.TID 0000.0001)         No. starts:          10
(PID.TID 0000.0001)          No. stops:          10
(PID.TID 0000.0001)  Seconds in section "SHAP_FILT           [THE_MAIN_LOOP]":
(PID.TID 0000.0001)          User time:  0.0000000000000000E+000
(PID.TID 0000.0001)        System time:  0.0000000000000000E+000
(PID.TID 0000.0001)    Wall clock time:  1.4898777008056641E-003
(PID.TID 0000.0001)         No. starts:          10
(PID.TID 0000.0001)          No. stops:          10
(PID.TID 0000.0001)  Seconds in section "DYNAMICS            [THE_MAIN_LOOP]":
(PID.TID 0000.0001)          User time:   4.119999766349792
(PID.TID 0000.0001)        System time:  9.9999904632568359E-003
(PID.TID 0000.0001)    Wall clock time:   4.123965144157410
(PID.TID 0000.0001)         No. starts:          10
(PID.TID 0000.0001)          No. stops:          10
(PID.TID 0000.0001)  Seconds in section "SOLVE_FOR_PRESSURE  [THE_MAIN_LOOP]":
(PID.TID 0000.0001)          User time:   9.070000767707825
(PID.TID 0000.0001)        System time:  0.0000000000000000E+000
(PID.TID 0000.0001)    Wall clock time:   9.062606930732727
(PID.TID 0000.0001)         No. starts:          10
(PID.TID 0000.0001)          No. stops:          10
(PID.TID 0000.0001)  Seconds in section "THE_CORRECTION_STEP [THE_MAIN_LOOP]":
(PID.TID 0000.0001)          User time:   2.799998521804810
(PID.TID 0000.0001)        System time:  0.0000000000000000E+000
(PID.TID 0000.0001)    Wall clock time:   2.800361990928650
(PID.TID 0000.0001)         No. starts:          10
(PID.TID 0000.0001)          No. stops:          10
(PID.TID 0000.0001)  Seconds in section "BLOCKING_EXCHANGES  [THE_MAIN_LOOP]":
(PID.TID 0000.0001)          User time:  2.0000219345092773E-002
(PID.TID 0000.0001)        System time:  0.0000000000000000E+000
(PID.TID 0000.0001)    Wall clock time:  2.7015328407287598E-002
(PID.TID 0000.0001)         No. starts:          10
(PID.TID 0000.0001)          No. stops:          10
(PID.TID 0000.0001)  Seconds in section "DO_THE_MODEL_IO     [THE_MAIN_LOOP]":
(PID.TID 0000.0001)          User time:  1.9998550415039063E-002
(PID.TID 0000.0001)        System time:  9.9999904632568359E-003
(PID.TID 0000.0001)    Wall clock time:  0.1178131103515625
(PID.TID 0000.0001)         No. starts:          10
(PID.TID 0000.0001)          No. stops:          10
(PID.TID 0000.0001)  Seconds in section "WRITE_CHECKPOINT    [THE_MAIN_LOOP]":
(PID.TID 0000.0001)          User time:  0.0000000000000000E+000
(PID.TID 0000.0001)        System time:  0.0000000000000000E+000
(PID.TID 0000.0001)    Wall clock time:  1.5012025833129883E-003
(PID.TID 0000.0001)         No. starts:          10
(PID.TID 0000.0001)          No. stops:          10
(PID.TID 0000.0001)  Seconds in section "WRITE_CHECKPOINT   [THE_MODEL_MAIN]":
(PID.TID 0000.0001)          User time:  6.0001373291015625E-002
(PID.TID 0000.0001)        System time:  3.0000001192092896E-002
(PID.TID 0000.0001)    Wall clock time:  0.1009169816970825
(PID.TID 0000.0001)         No. starts:           1
(PID.TID 0000.0001)          No. stops:           1
(PID.TID 0000.0001) // ======================================================
(PID.TID 0000.0001) // Tile <-> Tile communication statistics
(PID.TID 0000.0001) // ======================================================
(PID.TID 0000.0001) // o Tile number: 000001
(PID.TID 0000.0001) //         No. X exchanges =              0
(PID.TID 0000.0001) //            Max. X spins =              0
(PID.TID 0000.0001) //            Min. X spins =     1000000000
(PID.TID 0000.0001) //          Total. X spins =              0
(PID.TID 0000.0001) //            Avg. X spins =       0.00E+00
(PID.TID 0000.0001) //         No. Y exchanges =              0
(PID.TID 0000.0001) //            Max. Y spins =              0
(PID.TID 0000.0001) //            Min. Y spins =     1000000000
(PID.TID 0000.0001) //          Total. Y spins =              0
(PID.TID 0000.0001) //            Avg. Y spins =       0.00E+00
(PID.TID 0000.0001) // o Thread number: 000001
(PID.TID 0000.0001) //            No. barriers =          23421
(PID.TID 0000.0001) //      Max. barrier spins =              1
(PID.TID 0000.0001) //      Min. barrier spins =              1
(PID.TID 0000.0001) //     Total barrier spins =          23421
(PID.TID 0000.0001) //      Avg. barrier spins =       1.00E+00
