(PID.TID 0000.0001) 
(PID.TID 0000.0001) // ======================================================
(PID.TID 0000.0001) //                      MITgcm UV
(PID.TID 0000.0001) //                      =========
(PID.TID 0000.0001) // ======================================================
(PID.TID 0000.0001) // execution environment starting up...
(PID.TID 0000.0001) 
(PID.TID 0000.0001) // MITgcmUV version:  checkpoint64a
(PID.TID 0000.0001) // Build user:        jmc
(PID.TID 0000.0001) // Build host:        baudelaire
(PID.TID 0000.0001) // Build date:        Sun Dec  9 15:42:46 EST 2012
(PID.TID 0000.0001) 
(PID.TID 0000.0001) // =======================================================
(PID.TID 0000.0001) // Execution Environment parameter file "eedata"
(PID.TID 0000.0001) // =======================================================
(PID.TID 0000.0001) ># Example "eedata" file
(PID.TID 0000.0001) ># Lines beginning "#" are comments
(PID.TID 0000.0001) ># nTx - No. threads per process in X
(PID.TID 0000.0001) ># nTy - No. threads per process in Y
(PID.TID 0000.0001) > &EEPARMS
(PID.TID 0000.0001) > nTx=1,
(PID.TID 0000.0001) > nTy=1,
(PID.TID 0000.0001) > /
(PID.TID 0000.0001) ># Note: Some systems use & as the namelist terminator (as shown here).
(PID.TID 0000.0001) >#       Other systems use a / character.
(PID.TID 0000.0001) 
(PID.TID 0000.0001) // =======================================================
(PID.TID 0000.0001) // Computational Grid Specification ( see files "SIZE.h" )
(PID.TID 0000.0001) //                                  ( and "eedata"       )
(PID.TID 0000.0001) // =======================================================
(PID.TID 0000.0001)      nPx =    1 ; /* No. processes in X */
(PID.TID 0000.0001)      nPy =    1 ; /* No. processes in Y */
(PID.TID 0000.0001)      nSx =    2 ; /* No. tiles in X per process */
(PID.TID 0000.0001)      nSy =    2 ; /* No. tiles in Y per process */
(PID.TID 0000.0001)      sNx =   40 ; /* Tile size in X */
(PID.TID 0000.0001)      sNy =   21 ; /* Tile size in Y */
(PID.TID 0000.0001)      OLx =    3 ; /* Tile overlap distance in X */
(PID.TID 0000.0001)      OLy =    3 ; /* Tile overlap distance in Y */
(PID.TID 0000.0001)      nTx =    1 ; /* No. threads in X per process */
(PID.TID 0000.0001)      nTy =    1 ; /* No. threads in Y per process */
(PID.TID 0000.0001)       Nr =    1 ; /* No. levels in the vertical   */
(PID.TID 0000.0001)       Nx =   80 ; /* Total domain size in X ( = nPx*nSx*sNx ) */
(PID.TID 0000.0001)       Ny =   42 ; /* Total domain size in Y ( = nPy*nSy*sNy ) */
(PID.TID 0000.0001)   nTiles =    4 ; /* Total no. tiles per process ( = nSx*nSy ) */
(PID.TID 0000.0001)   nProcs =    1 ; /* Total no. processes ( = nPx*nPy ) */
(PID.TID 0000.0001) nThreads =    1 ; /* Total no. threads per process ( = nTx*nTy ) */
(PID.TID 0000.0001) usingMPI =    F ; /* Flag used to control whether MPI is in use */
(PID.TID 0000.0001)                   /*  note: To execute a program with MPI calls */
(PID.TID 0000.0001)                   /*  it must be launched appropriately e.g     */
(PID.TID 0000.0001)                   /*  "mpirun -np 64 ......"                    */
(PID.TID 0000.0001) useCoupler=    F ;/* Flag used to control communications with   */
(PID.TID 0000.0001)                   /*  other model components, through a coupler */
(PID.TID 0000.0001) debugMode =    F ; /* print debug msg. (sequence of S/R calls)  */
(PID.TID 0000.0001) printMapIncludesZeros=    F ; /* print zeros in Std.Output maps */
(PID.TID 0000.0001) maxLengthPrt1D=   65 /* maxLength of 1D array printed to StdOut */
(PID.TID 0000.0001) 
(PID.TID 0000.0001) // ======================================================
(PID.TID 0000.0001) // Mapping of tiles to threads
(PID.TID 0000.0001) // ======================================================
(PID.TID 0000.0001) // -o- Thread   1, tiles (   1:   2,   1:   2)
(PID.TID 0000.0001) 
(PID.TID 0000.0001) // ======================================================
(PID.TID 0000.0001) // Tile <-> Tile connectvity table
(PID.TID 0000.0001) // ======================================================
(PID.TID 0000.0001) // Tile number: 000001 (process no. = 000000)
(PID.TID 0000.0001) //        WEST: Tile = 000002, Process = 000000, Comm = put
(PID.TID 0000.0001) //                bi = 000002, bj = 000001
(PID.TID 0000.0001) //        EAST: Tile = 000002, Process = 000000, Comm = put
(PID.TID 0000.0001) //                bi = 000002, bj = 000001
(PID.TID 0000.0001) //       SOUTH: Tile = 000003, Process = 000000, Comm = put
(PID.TID 0000.0001) //                bi = 000001, bj = 000002
(PID.TID 0000.0001) //       NORTH: Tile = 000003, Process = 000000, Comm = put
(PID.TID 0000.0001) //                bi = 000001, bj = 000002
(PID.TID 0000.0001) // Tile number: 000002 (process no. = 000000)
(PID.TID 0000.0001) //        WEST: Tile = 000001, Process = 000000, Comm = put
(PID.TID 0000.0001) //                bi = 000001, bj = 000001
(PID.TID 0000.0001) //        EAST: Tile = 000001, Process = 000000, Comm = put
(PID.TID 0000.0001) //                bi = 000001, bj = 000001
(PID.TID 0000.0001) //       SOUTH: Tile = 000004, Process = 000000, Comm = put
(PID.TID 0000.0001) //                bi = 000002, bj = 000002
(PID.TID 0000.0001) //       NORTH: Tile = 000004, Process = 000000, Comm = put
(PID.TID 0000.0001) //                bi = 000002, bj = 000002
(PID.TID 0000.0001) // Tile number: 000003 (process no. = 000000)
(PID.TID 0000.0001) //        WEST: Tile = 000004, Process = 000000, Comm = put
(PID.TID 0000.0001) //                bi = 000002, bj = 000002
(PID.TID 0000.0001) //        EAST: Tile = 000004, Process = 000000, Comm = put
(PID.TID 0000.0001) //                bi = 000002, bj = 000002
(PID.TID 0000.0001) //       SOUTH: Tile = 000001, Process = 000000, Comm = put
(PID.TID 0000.0001) //                bi = 000001, bj = 000001
(PID.TID 0000.0001) //       NORTH: Tile = 000001, Process = 000000, Comm = put
(PID.TID 0000.0001) //                bi = 000001, bj = 000001
(PID.TID 0000.0001) // Tile number: 000004 (process no. = 000000)
(PID.TID 0000.0001) //        WEST: Tile = 000003, Process = 000000, Comm = put
(PID.TID 0000.0001) //                bi = 000001, bj = 000002
(PID.TID 0000.0001) //        EAST: Tile = 000003, Process = 000000, Comm = put
(PID.TID 0000.0001) //                bi = 000001, bj = 000002
(PID.TID 0000.0001) //       SOUTH: Tile = 000002, Process = 000000, Comm = put
(PID.TID 0000.0001) //                bi = 000002, bj = 000001
(PID.TID 0000.0001) //       NORTH: Tile = 000002, Process = 000000, Comm = put
(PID.TID 0000.0001) //                bi = 000002, bj = 000001
(PID.TID 0000.0001) 
(PID.TID 0000.0001)  INI_PARMS: opening model parameter file "data"
(PID.TID 0000.0001)  OPEN_COPY_DATA_FILE: opening file data
(PID.TID 0000.0001) // =======================================================
(PID.TID 0000.0001) // Parameter file "data"
(PID.TID 0000.0001) // =======================================================
(PID.TID 0000.0001) ># ====================
(PID.TID 0000.0001) ># | Model parameters |
(PID.TID 0000.0001) ># ====================
(PID.TID 0000.0001) >#
(PID.TID 0000.0001) > &PARM01
(PID.TID 0000.0001) > tRef= -1.62,
(PID.TID 0000.0001) > sRef= 30.,
(PID.TID 0000.0001) > no_slip_sides=.FALSE.,
(PID.TID 0000.0001) > no_slip_bottom=.TRUE.,
(PID.TID 0000.0001) >#bottomDragLinear=1.E-3,
(PID.TID 0000.0001) > bottomDragQuadratic=5.E-3,
(PID.TID 0000.0001) > viscAr=3.E-2,
(PID.TID 0000.0001) > viscAh=3.E+2,
(PID.TID 0000.0001) > HeatCapacity_Cp = 3986.,
(PID.TID 0000.0001) > rhoNil          = 1030.,
(PID.TID 0000.0001) > rhoConstFresh   = 1000.,
(PID.TID 0000.0001) > eosType='LINEAR',
(PID.TID 0000.0001) > tAlpha=2.E-4,
(PID.TID 0000.0001) > sBeta= 0.,
(PID.TID 0000.0001) > staggerTimeStep=.TRUE.,
(PID.TID 0000.0001) > saltStepping=.FALSE.,
(PID.TID 0000.0001) >#tempStepping=.FALSE.,
(PID.TID 0000.0001) > tempAdvection=.FALSE.,
(PID.TID 0000.0001) > momStepping=.FALSE.,
(PID.TID 0000.0001) >#f0=1.e-4,
(PID.TID 0000.0001) > f0=0.e-4,
(PID.TID 0000.0001) > beta=0.,
(PID.TID 0000.0001) > useJamartWetPoints=.TRUE.,
(PID.TID 0000.0001) > rigidLid=.FALSE.,
(PID.TID 0000.0001) > implicitFreeSurface=.TRUE.,
(PID.TID 0000.0001) >#exactConserv=.TRUE.,
(PID.TID 0000.0001) > convertFW2Salt=-1,
(PID.TID 0000.0001) > readBinaryPrec=64,
(PID.TID 0000.0001) > writeBinaryPrec=64,
(PID.TID 0000.0001) >#globalFiles=.TRUE.,
(PID.TID 0000.0001) > useSingleCpuIO=.TRUE.,
(PID.TID 0000.0001) >#debugLevel=4,
(PID.TID 0000.0001) > /
(PID.TID 0000.0001) >
(PID.TID 0000.0001) ># Elliptic solver parameters
(PID.TID 0000.0001) > &PARM02
(PID.TID 0000.0001) > cg2dMaxIters=500,
(PID.TID 0000.0001) > cg2dTargetResidual=1.E-12,
(PID.TID 0000.0001) > /
(PID.TID 0000.0001) >
(PID.TID 0000.0001) ># Time stepping parameters
(PID.TID 0000.0001) > &PARM03
(PID.TID 0000.0001) > startTime=0.0,
(PID.TID 0000.0001) >#endTime=432000.,
(PID.TID 0000.0001) > deltaT=1800.0,
(PID.TID 0000.0001) > abEps=0.1,
(PID.TID 0000.0001) > forcing_In_AB = .FALSE.,
(PID.TID 0000.0001) > pChkptFreq=3600000.,
(PID.TID 0000.0001) > dumpFreq = 864000.,
(PID.TID 0000.0001) > monitorFreq=86400.,
(PID.TID 0000.0001) > monitorSelect=2,
(PID.TID 0000.0001) > nTimeSteps=12,
(PID.TID 0000.0001) > monitorFreq=1.,
(PID.TID 0000.0001) > /
(PID.TID 0000.0001) >
(PID.TID 0000.0001) ># Gridding parameters
(PID.TID 0000.0001) > &PARM04
(PID.TID 0000.0001) > usingCartesianGrid=.TRUE.,
(PID.TID 0000.0001) > delX=80*5.E3,
(PID.TID 0000.0001) > delY=42*5.E3,
(PID.TID 0000.0001) > ygOrigin=-110.E3,
(PID.TID 0000.0001) >#delR= 20., 30., 50.,
(PID.TID 0000.0001) > delR= 10.,
(PID.TID 0000.0001) > /
(PID.TID 0000.0001) >
(PID.TID 0000.0001) ># Input datasets
(PID.TID 0000.0001) > &PARM05
(PID.TID 0000.0001) > bathyFile       = 'bathy_3c.bin',
(PID.TID 0000.0001) > uVelInitFile    = 'uVel_3c0.bin',
(PID.TID 0000.0001) > vVelInitFile    = 'vVel_3c0.bin',
(PID.TID 0000.0001) >#pSurfInitFile   = 'eta_3c0.bin',
(PID.TID 0000.0001) >#uVelInitFile    = 'uVel_3c1.bin',
(PID.TID 0000.0001) >#vVelInitFile    = 'vVel_3c1.bin',
(PID.TID 0000.0001) >#pSurfInitFile   = 'eta_3c1.bin',
(PID.TID 0000.0001) >#bathyFile       = 'channel.bin',
(PID.TID 0000.0001) >#uVelInitFile    = 'const+40.bin',
(PID.TID 0000.0001) >#vVelInitFile    = 'const-10.bin',
(PID.TID 0000.0001) > /
(PID.TID 0000.0001) 
(PID.TID 0000.0001)  INI_PARMS ; starts to read PARM01
(PID.TID 0000.0001)  INI_PARMS ; read PARM01 : OK
(PID.TID 0000.0001)  INI_PARMS ; starts to read PARM02
(PID.TID 0000.0001)  INI_PARMS ; read PARM02 : OK
(PID.TID 0000.0001)  INI_PARMS ; starts to read PARM03
(PID.TID 0000.0001)  INI_PARMS ; read PARM03 : OK
(PID.TID 0000.0001)  INI_PARMS ; starts to read PARM04
(PID.TID 0000.0001)  INI_PARMS ; read PARM04 : OK
(PID.TID 0000.0001)  INI_PARMS ; starts to read PARM05
(PID.TID 0000.0001)  INI_PARMS ; read PARM05 : OK
(PID.TID 0000.0001)  INI_PARMS: finished reading file "data"
(PID.TID 0000.0001)  PACKAGES_BOOT: opening data.pkg
(PID.TID 0000.0001)  OPEN_COPY_DATA_FILE: opening file data.pkg
(PID.TID 0000.0001) // =======================================================
(PID.TID 0000.0001) // Parameter file "data.pkg"
(PID.TID 0000.0001) // =======================================================
(PID.TID 0000.0001) ># Packages
(PID.TID 0000.0001) > &PACKAGES
(PID.TID 0000.0001) >  useEXF    = .TRUE.,
(PID.TID 0000.0001) >  useSEAICE = .TRUE.,
(PID.TID 0000.0001) >  useThSIce = .TRUE.,
(PID.TID 0000.0001) >  useDiagnostics=.TRUE.,
(PID.TID 0000.0001) > /
(PID.TID 0000.0001) 
(PID.TID 0000.0001)  PACKAGES_BOOT: finished reading data.pkg
(PID.TID 0000.0001) CAL_READPARMS: opening data.cal
(PID.TID 0000.0001)  OPEN_COPY_DATA_FILE: opening file data.cal
(PID.TID 0000.0001) // =======================================================
(PID.TID 0000.0001) // Parameter file "data.cal"
(PID.TID 0000.0001) // =======================================================
(PID.TID 0000.0001) >#
(PID.TID 0000.0001) ># *******************
(PID.TID 0000.0001) ># Calendar Parameters
(PID.TID 0000.0001) ># *******************
(PID.TID 0000.0001) > &CAL_NML
(PID.TID 0000.0001) > TheCalendar='gregorian',
(PID.TID 0000.0001) ># TheCalendar='model',
(PID.TID 0000.0001) > startDate_1=19790101,
(PID.TID 0000.0001) > startDate_2=000000,
(PID.TID 0000.0001) > /
(PID.TID 0000.0001) 
(PID.TID 0000.0001) CAL_READPARMS: finished reading data.cal
(PID.TID 0000.0001) EXF_READPARMS: opening data.exf
(PID.TID 0000.0001)  OPEN_COPY_DATA_FILE: opening file data.exf
(PID.TID 0000.0001) // =======================================================
(PID.TID 0000.0001) // Parameter file "data.exf"
(PID.TID 0000.0001) // =======================================================
(PID.TID 0000.0001) >#
(PID.TID 0000.0001) ># *********************
(PID.TID 0000.0001) ># External Forcing Data
(PID.TID 0000.0001) ># *********************
(PID.TID 0000.0001) > &EXF_NML_01
(PID.TID 0000.0001) >#
(PID.TID 0000.0001) > useExfCheckRange  = .TRUE.,
(PID.TID 0000.0001) > repeatPeriod      = 2635200.0,
(PID.TID 0000.0001) > exf_iprec         = 64,
(PID.TID 0000.0001) > exf_monFreq       = 86400000.,
(PID.TID 0000.0001) >#useRelativeWind = .TRUE.,
(PID.TID 0000.0001) >#
(PID.TID 0000.0001) > /
(PID.TID 0000.0001) >
(PID.TID 0000.0001) ># *********************
(PID.TID 0000.0001) > &EXF_NML_02
(PID.TID 0000.0001) >#
(PID.TID 0000.0001) >#ustressstartdate1 = 19781216,
(PID.TID 0000.0001) >#ustressstartdate2 = 180000,
(PID.TID 0000.0001) >#ustressperiod     = 2635200.0,
(PID.TID 0000.0001) >#
(PID.TID 0000.0001) >#vstressstartdate1 = 19781216,
(PID.TID 0000.0001) >#vstressstartdate2 = 180000,
(PID.TID 0000.0001) >#vstressperiod     = 2635200.0,
(PID.TID 0000.0001) >#
(PID.TID 0000.0001) > atempstartdate1   = 19781216,
(PID.TID 0000.0001) > atempstartdate2   = 180000,
(PID.TID 0000.0001) > atempperiod       = 2635200.0,
(PID.TID 0000.0001) >#
(PID.TID 0000.0001) > aqhstartdate1     = 19781216,
(PID.TID 0000.0001) > aqhstartdate2     = 180000,
(PID.TID 0000.0001) > aqhperiod         = 2635200.0,
(PID.TID 0000.0001) >#
(PID.TID 0000.0001) > precipstartdate1  = 19781216,
(PID.TID 0000.0001) > precipstartdate2  = 180000,
(PID.TID 0000.0001) > precipperiod      = 2635200.0,
(PID.TID 0000.0001) >#
(PID.TID 0000.0001) > uwindstartdate1   = 19781216,
(PID.TID 0000.0001) > uwindstartdate2   = 180000,
(PID.TID 0000.0001) > uwindperiod       = 2635200.0,
(PID.TID 0000.0001) >#
(PID.TID 0000.0001) > vwindstartdate1   = 19781216,
(PID.TID 0000.0001) > vwindstartdate2   = 180000,
(PID.TID 0000.0001) > vwindperiod       = 2635200.0,
(PID.TID 0000.0001) >#
(PID.TID 0000.0001) > swdownstartdate1  = 19781216,
(PID.TID 0000.0001) > swdownstartdate2  = 180000,
(PID.TID 0000.0001) > swdownperiod      = 2635200.0,
(PID.TID 0000.0001) >#
(PID.TID 0000.0001) > lwdownstartdate1  = 19781216,
(PID.TID 0000.0001) > lwdownstartdate2  = 180000,
(PID.TID 0000.0001) > lwdownperiod      = 2635200.0,
(PID.TID 0000.0001) >#
(PID.TID 0000.0001) > climsststartdate1  = 19781216,
(PID.TID 0000.0001) > climsststartdate2  = 180000,
(PID.TID 0000.0001) > climsstperiod      = 2635200.0,
(PID.TID 0000.0001) > climsstTauRelax    = 2592000.,
(PID.TID 0000.0001) >#
(PID.TID 0000.0001) > climsssstartdate1  = 19781216,
(PID.TID 0000.0001) > climsssstartdate2  = 180000,
(PID.TID 0000.0001) > climsssperiod      = 2635200.0,
(PID.TID 0000.0001) >#climsssTauRelax    = 2592000.,
(PID.TID 0000.0001) >#
(PID.TID 0000.0001) > ustressfile       = ' ',
(PID.TID 0000.0001) > vstressfile       = ' ',
(PID.TID 0000.0001) > atempfile         = 'tair_4x.bin',
(PID.TID 0000.0001) > aqhfile           = 'qa70_4x.bin',
(PID.TID 0000.0001) > uwindfile         = 'windx.bin',
(PID.TID 0000.0001) >#vwindfile         = 'windy.bin',
(PID.TID 0000.0001) > precipfile        = 'const_00.bin',
(PID.TID 0000.0001) > lwdownfile        = 'dlw_250.bin',
(PID.TID 0000.0001) > swdownfile        = 'dsw_100.bin',
(PID.TID 0000.0001) > runoffFile        = ' '
(PID.TID 0000.0001) > climsstfile       = 'tocn.bin',
(PID.TID 0000.0001) >#climsssfile       = 'socn.bin',
(PID.TID 0000.0001) > /
(PID.TID 0000.0001) >
(PID.TID 0000.0001) ># *********************
(PID.TID 0000.0001) > &EXF_NML_03
(PID.TID 0000.0001) >#exf_offset_atemp=5;
(PID.TID 0000.0001) > /
(PID.TID 0000.0001) >
(PID.TID 0000.0001) ># *********************
(PID.TID 0000.0001) ># old open64 compiler (4.2.1) cannot skip this namelist to read in the next one;
(PID.TID 0000.0001) ># comment out this namelist (not read).
(PID.TID 0000.0001) >#&EXF_NML_04
(PID.TID 0000.0001) >#&
(PID.TID 0000.0001) >
(PID.TID 0000.0001) ># *********************
(PID.TID 0000.0001) > &EXF_NML_OBCS
(PID.TID 0000.0001) > /
(PID.TID 0000.0001) 
(PID.TID 0000.0001) EXF_READPARMS: reading EXF_NML_01
(PID.TID 0000.0001) EXF_READPARMS: reading EXF_NML_02
(PID.TID 0000.0001) EXF_READPARMS: reading EXF_NML_03
(PID.TID 0000.0001) EXF_READPARMS: finished reading data.exf
(PID.TID 0000.0001) 
(PID.TID 0000.0001)  SEAICE_READPARMS: opening data.seaice
(PID.TID 0000.0001)  OPEN_COPY_DATA_FILE: opening file data.seaice
(PID.TID 0000.0001) // =======================================================
(PID.TID 0000.0001) // Parameter file "data.seaice"
(PID.TID 0000.0001) // =======================================================
(PID.TID 0000.0001) ># SEAICE parameters
(PID.TID 0000.0001) > &SEAICE_PARM01
(PID.TID 0000.0001) > usePW79thermodynamics=.FALSE.,
(PID.TID 0000.0001) > SEAICE_strength    = 2.6780e+04,
(PID.TID 0000.0001) > OCEAN_drag         = 8.1541e-04,
(PID.TID 0000.0001) > SEAICE_waterDrag   = 5.3508,
(PID.TID 0000.0001) > LSR_ERROR          = 1.E-12,
(PID.TID 0000.0001) > SOLV_MAX_ITERS     = 1500,
(PID.TID 0000.0001) > LSR_mixIniGuess    = 1,
(PID.TID 0000.0001) > SEAICE_no_Slip     = .FALSE.,
(PID.TID 0000.0001) > SEAICEwriteState   = .TRUE.,
(PID.TID 0000.0001) > SEAICE_monFreq = 21600.,
(PID.TID 0000.0001) > /
(PID.TID 0000.0001) >
(PID.TID 0000.0001) > &SEAICE_PARM03
(PID.TID 0000.0001) > /
(PID.TID 0000.0001) 
(PID.TID 0000.0001)  SEAICE_READPARMS: finished reading data.seaice
(PID.TID 0000.0001)  THSICE_READPARMS: opening data.ice
(PID.TID 0000.0001)  OPEN_COPY_DATA_FILE: opening file data.ice
(PID.TID 0000.0001) // =======================================================
(PID.TID 0000.0001) // Parameter file "data.ice"
(PID.TID 0000.0001) // =======================================================
(PID.TID 0000.0001) > &THSICE_CONST
(PID.TID 0000.0001) >#- with fractional ice:
(PID.TID 0000.0001) > iceMaskMin = 0.001,
(PID.TID 0000.0001) > hiMax      = 10.,
(PID.TID 0000.0001) > hsMax      = 10.,
(PID.TID 0000.0001) > dhSnowLin  = 0.1,
(PID.TID 0000.0001) > fracEnFreez= 0.4,
(PID.TID 0000.0001) > hNewIceMax = 1.,
(PID.TID 0000.0001) > albIceMax  = 0.6,
(PID.TID 0000.0001) > albIceMin  = 0.6,
(PID.TID 0000.0001) >#albColdSnow= 0.85,
(PID.TID 0000.0001) >#albWarmSnow= 0.60,
(PID.TID 0000.0001) >#tempSnowAlb= -5.,
(PID.TID 0000.0001) >#albOldSnow = 0.60,
(PID.TID 0000.0001) >#hNewSnowAge= 2.e-3,
(PID.TID 0000.0001) >#snowAgTime = 4320000.,
(PID.TID 0000.0001) >#hAlbIce    = 0.44,
(PID.TID 0000.0001) >#hAlbSnow   = 0.15,
(PID.TID 0000.0001) > /
(PID.TID 0000.0001) >
(PID.TID 0000.0001) > &THSICE_PARM01
(PID.TID 0000.0001) >#StartIceModel=1,
(PID.TID 0000.0001) >#thSIce_skipThermo=.TRUE.,
(PID.TID 0000.0001) > thSIceAdvScheme=77,
(PID.TID 0000.0001) >#thSIce_diffK   =800.,
(PID.TID 0000.0001) > stressReduction=0.,
(PID.TID 0000.0001) > thSIceFract_InitFile='const100.bin',
(PID.TID 0000.0001) > thSIceThick_InitFile='const+20.bin',
(PID.TID 0000.0001) >#thSIce_diagFreq=2592000.,
(PID.TID 0000.0001) > thSIce_monFreq =21600.,
(PID.TID 0000.0001) > thSIce_monFreq =1800.,
(PID.TID 0000.0001) > /
(PID.TID 0000.0001) >
(PID.TID 0000.0001) 
(PID.TID 0000.0001)  THSICE_READPARMS: read THSICE_CONST
(PID.TID 0000.0001)  THSICE_READPARMS: read THSICE_PARM01
 ThSI:       rhos        =  3.3000000000000E+02
 ThSI:       rhoi        =  9.0000000000000E+02
 ThSI:       rhosw       =  1.0300000000000E+03
 ThSI:       rhofw       =  1.0000000000000E+03
 ThSI:       floodFac    =  3.9393939393939E-01
 ThSI:       cpIce       =  2.1060000000000E+03
 ThSI:       cpWater     =  3.9860000000000E+03
 ThSI:       kIce        =  2.0300000000000E+00
 ThSI:       kSnow       =  3.0000000000000E-01
 ThSI:       bMeltCoef   =  6.0000000000000E-03
 ThSI:       Lfresh      =  3.3400000000000E+05
 ThSI:       qsnow       =  3.3400000000000E+05
 ThSI:       albColdSnow =  8.5000000000000E-01
 ThSI:       albWarmSnow =  7.0000000000000E-01
 ThSI:       tempSnowAlb = -1.0000000000000E+01
 ThSI:       albOldSnow  =  5.5000000000000E-01
 ThSI:       hNewSnowAge =  2.0000000000000E-03
 ThSI:       snowAgTime  =  4.3200000000000E+06
 ThSI:       albIceMax   =  6.0000000000000E-01
 ThSI:       albIceMin   =  6.0000000000000E-01
 ThSI:       hAlbIce     =  5.0000000000000E-01
 ThSI:       hAlbSnow    =  3.0000000000000E-01
 ThSI:       i0swFrac    =  3.0000000000000E-01
 ThSI:       ksolar      =  1.5000000000000E+00
 ThSI:       dhSnowLin   =  1.0000000000000E-01
 ThSI:       saltIce     =  4.0000000000000E+00
 ThSI:       S_winton    =  1.0000000000000E+00
 ThSI:       mu_Tf       =  5.4000000000000E-02
 ThSI:       Tf0kel      =  2.7315000000000E+02
 ThSI:       Tmlt1       = -5.4000000000000E-02
 ThSI:       Terrmax     =  5.0000000000000E-01
 ThSI:       nitMaxTsf   =        20
 ThSI:       hIceMin     =  1.0000000000000E-02
 ThSI:       hiMax       =  1.0000000000000E+01
 ThSI:       hsMax       =  1.0000000000000E+01
 ThSI:       iceMaskMax  =  1.0000000000000E+00
 ThSI:       iceMaskMin  =  1.0000000000000E-03
 ThSI:       fracEnMelt  =  4.0000000000000E-01
 ThSI:       fracEnFreez =  4.0000000000000E-01
 ThSI:       hThinIce    =  2.0000000000000E-01
 ThSI:       hThickIce   =  2.5000000000000E+00
 ThSI:       hNewIceMax  =  1.0000000000000E+00
 ThSI: stressReduction   =  0.0000000000000E+00
 ThSI: thSIce_skipThermo =         F
 ThSI: thSIceAdvScheme   =        77
 ThSI: thSIceBalanceAtmFW=         0
 ThSI: thSIce_diffK      =  0.0000000000000E+00
 ThSI: thSIce_deltaT     =  1.8000000000000E+03
 ThSI: ocean_deltaT      =  1.8000000000000E+03
 ThSI: stepFwd_oceMxL    =         F
 ThSI: tauRelax_MxL      =  0.0000000000000E+00
 ThSI: tauRelax_MxL_salt =  0.0000000000000E+00
 ThSI: hMxL_default      =  5.0000000000000E+01
 ThSI: sMxL_default      =  3.5000000000000E+01
 ThSI: vMxL_default      =  5.0000000000000E-02
 ThSI: thSIce_taveFreq   =  0.0000000000000E+00
 ThSI: thSIce_diagFreq   =  8.6400000000000E+05
 ThSI: thSIce_monFreq    =  1.8000000000000E+03
 ThSI: startIceModel     =         0
(PID.TID 0000.0001)  DIAGNOSTICS_READPARMS: opening data.diagnostics
(PID.TID 0000.0001)  OPEN_COPY_DATA_FILE: opening file data.diagnostics
(PID.TID 0000.0001) // =======================================================
(PID.TID 0000.0001) // Parameter file "data.diagnostics"
(PID.TID 0000.0001) // =======================================================
(PID.TID 0000.0001) ># Diagnostic Package Choices
(PID.TID 0000.0001) >#--------------------
(PID.TID 0000.0001) >#  dumpAtLast (logical): always write output at the end of simulation (default=F)
(PID.TID 0000.0001) >#  diag_mnc   (logical): write to NetCDF files (default=useMNC)
(PID.TID 0000.0001) >#--for each output-stream:
(PID.TID 0000.0001) >#  fileName(n) : prefix of the output file name (max 80c long) for outp.stream n
(PID.TID 0000.0001) >#  frequency(n):< 0 : write snap-shot output every |frequency| seconds
(PID.TID 0000.0001) >#               > 0 : write time-average output every frequency seconds
(PID.TID 0000.0001) >#  timePhase(n)     : write at time = timePhase + multiple of |frequency|
(PID.TID 0000.0001) >#    averagingFreq  : frequency (in s) for periodic averaging interval
(PID.TID 0000.0001) >#    averagingPhase : phase     (in s) for periodic averaging interval
(PID.TID 0000.0001) >#    repeatCycle    : number of averaging intervals in 1 cycle
(PID.TID 0000.0001) >#  levels(:,n) : list of levels to write to file (Notes: declared as REAL)
(PID.TID 0000.0001) >#                when this entry is missing, select all common levels of this list
(PID.TID 0000.0001) >#  fields(:,n) : list of selected diagnostics fields (8.c) in outp.stream n
(PID.TID 0000.0001) >#                (see "available_diagnostics.log" file for the full list of diags)
(PID.TID 0000.0001) >#  missing_value(n) : missing value for real-type fields in output file "n"
(PID.TID 0000.0001) >#  fileFlags(n)     : specific code (8c string) for output file "n"
(PID.TID 0000.0001) >#--------------------
(PID.TID 0000.0001) ># This example dumps EXF diagnostics as snapshot after 10 time-steps
(PID.TID 0000.0001) ># Note: EXF air-sea fluxes over Sea-Ice are wrong
(PID.TID 0000.0001) > &DIAGNOSTICS_LIST
(PID.TID 0000.0001) >   dumpAtLast  = .TRUE.,
(PID.TID 0000.0001) >#--
(PID.TID 0000.0001) >  fields(1:11,1) = 'EXFtaux ','EXFtauy ','EXFqnet ','EXFempmr',
(PID.TID 0000.0001) >                   'EXFhl   ','EXFhs   ','EXFswnet','EXFlwnet',
(PID.TID 0000.0001) >                   'EXFuwind','EXFvwind','EXFatemp',
(PID.TID 0000.0001) >#  fileName(1) = 'exfDiag',
(PID.TID 0000.0001) >  frequency(1) = 86400.,
(PID.TID 0000.0001) >
(PID.TID 0000.0001) ># fields(1:12,2) = 'SIarea  ','SIheff  ','SIhsnow ',
(PID.TID 0000.0001) >#                  'SIuice  ','SIvice  ',
(PID.TID 0000.0001) >#                  'oceFWflx','oceSflux','oceQnet ',
(PID.TID 0000.0001) >#                  'SItices ','SIatmFW ','SIatmQnt',
(PID.TID 0000.0001) >#                  'SIempmr ','SIqnet  ','SIqsw   ',
(PID.TID 0000.0001) >  fields(1:11,2) = 'SI_Fract','SI_Thick','THETA   ','SI_Tsrf ',
(PID.TID 0000.0001) >#                  'SI_Tsrf ','SI_Tice1','SI_Tice2',
(PID.TID 0000.0001) >#                  'SI_Qice1','SI_Qice2',
(PID.TID 0000.0001) >#                  'SIsnwPrc','SIalbedo','SIsnwAge',
(PID.TID 0000.0001) >                   'SIflx2oc','SIfrw2oc','SIsaltFx',
(PID.TID 0000.0001) >                   'SIflxAtm','SIfrwAtm',
(PID.TID 0000.0001) >                   'SIuice  ','SIvice  ',
(PID.TID 0000.0001) >#                  'EXFqnet ','EXFempmr',
(PID.TID 0000.0001) >   fileName(2) = 'iceDiag',
(PID.TID 0000.0001) >  frequency(2) =  86400.,
(PID.TID 0000.0001) >  missing_value(2) = -999.,
(PID.TID 0000.0001) >  fields(1:7,3)  = 'SIuice  ','SIvice  ','SIheff  '
(PID.TID 0000.0001) >                   'SI_Fract','SI_Thick','SI_Tsrf ',
(PID.TID 0000.0001) >                   'THETA   ',
(PID.TID 0000.0001) >   fileName(3) = 'snapshot',
(PID.TID 0000.0001) >  frequency(3) = -86400.,
(PID.TID 0000.0001) >  timePhase(3) =  0.,
(PID.TID 0000.0001) >  missing_value(3) = -999.,
(PID.TID 0000.0001) > /
(PID.TID 0000.0001) >
(PID.TID 0000.0001) >#--------------------
(PID.TID 0000.0001) ># Parameter for Diagnostics of per level statistics:
(PID.TID 0000.0001) >#--------------------
(PID.TID 0000.0001) >#  diagSt_mnc (logical): write stat-diags to NetCDF files (default=diag_mnc)
(PID.TID 0000.0001) >#  diagSt_regMaskFile : file containing the region-mask to read-in
(PID.TID 0000.0001) >#  nSetRegMskFile   : number of region-mask sets within the region-mask file
(PID.TID 0000.0001) >#  set_regMask(i)   : region-mask set-index that identifies the region "i"
(PID.TID 0000.0001) >#  val_regMask(i)   : region "i" identifier value in the region mask
(PID.TID 0000.0001) >#--for each output-stream:
(PID.TID 0000.0001) >#  stat_fName(n) : prefix of the output file name (max 80c long) for outp.stream n
(PID.TID 0000.0001) >#  stat_freq(n):< 0 : write snap-shot output every |stat_freq| seconds
(PID.TID 0000.0001) >#               > 0 : write time-average output every stat_freq seconds
(PID.TID 0000.0001) >#  stat_phase(n)    : write at time = stat_phase + multiple of |stat_freq|
(PID.TID 0000.0001) >#  stat_region(:,n) : list of "regions" (default: 1 region only=global)
(PID.TID 0000.0001) >#  stat_fields(:,n) : list of selected diagnostics fields (8.c) in outp.stream n
(PID.TID 0000.0001) >#                (see "available_diagnostics.log" file for the full list of diags)
(PID.TID 0000.0001) >#--------------------
(PID.TID 0000.0001) > &DIAG_STATIS_PARMS
(PID.TID 0000.0001) >#stat_fields(1:12,1) = 'SIarea  ','SIheff  ','SIhsnow ',
(PID.TID 0000.0001) >#                      'oceFWflx','oceSflux','oceQnet ',
(PID.TID 0000.0001) >#                      'SItices ','SIatmFW ','SIatmQnt',
(PID.TID 0000.0001) >#                      'SIempmr ','SIqnet  ','SIqsw   ',
(PID.TID 0000.0001) >#                      'oceQsw  ',
(PID.TID 0000.0001) >  stat_fName(1) = 'iceStDiag',
(PID.TID 0000.0001) >   stat_freq(1) = 7200.,
(PID.TID 0000.0001) >  stat_phase(1) = 1800.,
(PID.TID 0000.0001) > stat_fields(1:14,1) = 'SI_Fract','SI_Thick','THETA   ',
(PID.TID 0000.0001) >                       'SI_Tsrf ','SI_Tice1','SI_Tice2',
(PID.TID 0000.0001) >                       'SIflx2oc','SIfrw2oc','SIsaltFx',
(PID.TID 0000.0001) >                       'SIflxAtm','SIfrwAtm','SI_SnowH',
(PID.TID 0000.0001) >                       'SIuice  ','SIvice  ',
(PID.TID 0000.0001) > /
(PID.TID 0000.0001) 
(PID.TID 0000.0001) S/R DIAGNOSTICS_READPARMS, read namelist "diagnostics_list": start
(PID.TID 0000.0001) S/R DIAGNOSTICS_READPARMS, read namelist "diagnostics_list": OK
(PID.TID 0000.0001) S/R DIAGNOSTICS_READPARMS, read namelist "DIAG_STATIS_PARMS": start
(PID.TID 0000.0001) S/R DIAGNOSTICS_READPARMS, read namelist "DIAG_STATIS_PARMS": OK
(PID.TID 0000.0001)  DIAGNOSTICS_READPARMS: global parameter summary:
(PID.TID 0000.0001)  dumpAtLast = /* always write time-ave diags at the end */
(PID.TID 0000.0001)                   T
(PID.TID 0000.0001)     ;
(PID.TID 0000.0001)  diag_mnc =   /* write NetCDF output files */
(PID.TID 0000.0001)                   F
(PID.TID 0000.0001)     ;
(PID.TID 0000.0001)  useMissingValue = /* put MissingValue where mask = 0 */
(PID.TID 0000.0001)                   F
(PID.TID 0000.0001)     ;
(PID.TID 0000.0001)  diagCG_maxIters = /* max number of iters in diag_cg2d */
(PID.TID 0000.0001)                     500
(PID.TID 0000.0001)     ;
(PID.TID 0000.0001)  diagCG_resTarget = /* residual target for diag_cg2d */
(PID.TID 0000.0001)                 1.000000000000000E-12
(PID.TID 0000.0001)     ;
(PID.TID 0000.0001) -----------------------------------------------------
(PID.TID 0000.0001)  DIAGNOSTICS_READPARMS: active diagnostics summary:
(PID.TID 0000.0001) -----------------------------------------------------
(PID.TID 0000.0001) Creating Output Stream: iceDiag
(PID.TID 0000.0001) Output Frequency:      86400.000000 ; Phase:           0.000000
(PID.TID 0000.0001)  Averaging Freq.:      86400.000000 , Phase:           0.000000 , Cycle:   1
(PID.TID 0000.0001)  missing value: -9.990000000000E+02 ; for integers:   123456789
(PID.TID 0000.0001)  Levels:    will be set later
(PID.TID 0000.0001)  Fields:    SI_Fract SI_Thick THETA    SI_Tsrf  SIflx2oc SIfrw2oc SIsaltFx SIflxAtm SIfrwAtm SIuice
(PID.TID 0000.0001)  Fields:    SIvice
(PID.TID 0000.0001) Creating Output Stream: snapshot
(PID.TID 0000.0001) Output Frequency:     -86400.000000 ; Phase:           0.000000
(PID.TID 0000.0001)  Averaging Freq.:          0.000000 , Phase:           0.000000 , Cycle:   1
(PID.TID 0000.0001)  missing value: -9.990000000000E+02 ; for integers:   123456789
(PID.TID 0000.0001)  Levels:    will be set later
(PID.TID 0000.0001)  Fields:    SIuice   SIvice   SIheff   SI_Fract SI_Thick SI_Tsrf  THETA
(PID.TID 0000.0001) -----------------------------------------------------
(PID.TID 0000.0001)  DIAGNOSTICS_READPARMS: statistics diags. summary:
(PID.TID 0000.0001) Creating Stats. Output Stream: iceStDiag
(PID.TID 0000.0001) Output Frequency:       7200.000000 ; Phase:        1800.000000
(PID.TID 0000.0001)  Regions:   0
(PID.TID 0000.0001)  Fields:    SI_Fract SI_Thick THETA    SI_Tsrf  SI_Tice1 SI_Tice2 SIflx2oc SIfrw2oc SIsaltFx SIflxAtm
(PID.TID 0000.0001)  Fields:    SIfrwAtm SI_SnowH SIuice   SIvice
(PID.TID 0000.0001) -----------------------------------------------------
(PID.TID 0000.0001) 
(PID.TID 0000.0001) SET_PARMS: done
(PID.TID 0000.0001) Enter INI_VERTICAL_GRID: setInterFDr=    T ; setCenterDr=    F
(PID.TID 0000.0001) %MON XC_max                       =   3.9750000000000E+05
(PID.TID 0000.0001) %MON XC_min                       =   2.5000000000000E+03
(PID.TID 0000.0001) %MON XC_mean                      =   2.0000000000000E+05
(PID.TID 0000.0001) %MON XC_sd                        =   1.1546103238755E+05
(PID.TID 0000.0001) %MON XG_max                       =   3.9500000000000E+05
(PID.TID 0000.0001) %MON XG_min                       =   0.0000000000000E+00
(PID.TID 0000.0001) %MON XG_mean                      =   1.9750000000000E+05
(PID.TID 0000.0001) %MON XG_sd                        =   1.1546103238755E+05
(PID.TID 0000.0001) %MON DXC_max                      =   5.0000000000000E+03
(PID.TID 0000.0001) %MON DXC_min                      =   5.0000000000000E+03
(PID.TID 0000.0001) %MON DXC_mean                     =   5.0000000000000E+03
(PID.TID 0000.0001) %MON DXC_sd                       =   0.0000000000000E+00
(PID.TID 0000.0001) %MON DXF_max                      =   5.0000000000000E+03
(PID.TID 0000.0001) %MON DXF_min                      =   5.0000000000000E+03
(PID.TID 0000.0001) %MON DXF_mean                     =   5.0000000000000E+03
(PID.TID 0000.0001) %MON DXF_sd                       =   0.0000000000000E+00
(PID.TID 0000.0001) %MON DXG_max                      =   5.0000000000000E+03
(PID.TID 0000.0001) %MON DXG_min                      =   5.0000000000000E+03
(PID.TID 0000.0001) %MON DXG_mean                     =   5.0000000000000E+03
(PID.TID 0000.0001) %MON DXG_sd                       =   0.0000000000000E+00
(PID.TID 0000.0001) %MON DXV_max                      =   5.0000000000000E+03
(PID.TID 0000.0001) %MON DXV_min                      =   5.0000000000000E+03
(PID.TID 0000.0001) %MON DXV_mean                     =   5.0000000000000E+03
(PID.TID 0000.0001) %MON DXV_sd                       =   0.0000000000000E+00
(PID.TID 0000.0001) %MON YC_max                       =   9.7500000000000E+04
(PID.TID 0000.0001) %MON YC_min                       =  -1.0750000000000E+05
(PID.TID 0000.0001) %MON YC_mean                      =  -5.0000000000000E+03
(PID.TID 0000.0001) %MON YC_sd                        =   6.0604592785256E+04
(PID.TID 0000.0001) %MON YG_max                       =   9.5000000000000E+04
(PID.TID 0000.0001) %MON YG_min                       =  -1.1000000000000E+05
(PID.TID 0000.0001) %MON YG_mean                      =  -7.5000000000000E+03
(PID.TID 0000.0001) %MON YG_sd                        =   6.0604592785256E+04
(PID.TID 0000.0001) %MON DYC_max                      =   5.0000000000000E+03
(PID.TID 0000.0001) %MON DYC_min                      =   5.0000000000000E+03
(PID.TID 0000.0001) %MON DYC_mean                     =   5.0000000000000E+03
(PID.TID 0000.0001) %MON DYC_sd                       =   0.0000000000000E+00
(PID.TID 0000.0001) %MON DYF_max                      =   5.0000000000000E+03
(PID.TID 0000.0001) %MON DYF_min                      =   5.0000000000000E+03
(PID.TID 0000.0001) %MON DYF_mean                     =   5.0000000000000E+03
(PID.TID 0000.0001) %MON DYF_sd                       =   0.0000000000000E+00
(PID.TID 0000.0001) %MON DYG_max                      =   5.0000000000000E+03
(PID.TID 0000.0001) %MON DYG_min                      =   5.0000000000000E+03
(PID.TID 0000.0001) %MON DYG_mean                     =   5.0000000000000E+03
(PID.TID 0000.0001) %MON DYG_sd                       =   0.0000000000000E+00
(PID.TID 0000.0001) %MON DYU_max                      =   5.0000000000000E+03
(PID.TID 0000.0001) %MON DYU_min                      =   5.0000000000000E+03
(PID.TID 0000.0001) %MON DYU_mean                     =   5.0000000000000E+03
(PID.TID 0000.0001) %MON DYU_sd                       =   0.0000000000000E+00
(PID.TID 0000.0001) %MON RA_max                       =   2.5000000000000E+07
(PID.TID 0000.0001) %MON RA_min                       =   2.5000000000000E+07
(PID.TID 0000.0001) %MON RA_mean                      =   2.5000000000000E+07
(PID.TID 0000.0001) %MON RA_sd                        =   3.7252902984619E-09
(PID.TID 0000.0001) %MON RAW_max                      =   2.5000000000000E+07
(PID.TID 0000.0001) %MON RAW_min                      =   2.5000000000000E+07
(PID.TID 0000.0001) %MON RAW_mean                     =   2.5000000000000E+07
(PID.TID 0000.0001) %MON RAW_sd                       =   3.7252902984619E-09
(PID.TID 0000.0001) %MON RAS_max                      =   2.5000000000000E+07
(PID.TID 0000.0001) %MON RAS_min                      =   2.5000000000000E+07
(PID.TID 0000.0001) %MON RAS_mean                     =   2.5000000000000E+07
(PID.TID 0000.0001) %MON RAS_sd                       =   3.7252902984619E-09
(PID.TID 0000.0001) %MON RAZ_max                      =   2.5000000000000E+07
(PID.TID 0000.0001) %MON RAZ_min                      =   2.5000000000000E+07
(PID.TID 0000.0001) %MON RAZ_mean                     =   2.5000000000000E+07
(PID.TID 0000.0001) %MON RAZ_sd                       =   3.7252902984619E-09
(PID.TID 0000.0001) %MON AngleCS_max                  =   1.0000000000000E+00
(PID.TID 0000.0001) %MON AngleCS_min                  =   1.0000000000000E+00
(PID.TID 0000.0001) %MON AngleCS_mean                 =   1.0000000000000E+00
(PID.TID 0000.0001) %MON AngleCS_sd                   =   0.0000000000000E+00
(PID.TID 0000.0001) %MON AngleSN_max                  =   0.0000000000000E+00
(PID.TID 0000.0001) %MON AngleSN_min                  =   0.0000000000000E+00
(PID.TID 0000.0001) %MON AngleSN_mean                 =   0.0000000000000E+00
(PID.TID 0000.0001) %MON AngleSN_sd                   =   0.0000000000000E+00
(PID.TID 0000.0001)  MDS_READ_FIELD: opening global file: bathy_3c.bin
(PID.TID 0000.0001) // =======================================================
(PID.TID 0000.0001) // Field Model R_low (ini_masks_etc)
(PID.TID 0000.0001) // CMIN =         -1.000000000000000E+01
(PID.TID 0000.0001) // CMAX =         -1.000000000000000E+01
(PID.TID 0000.0001) // CINT =          0.000000000000000E+00
(PID.TID 0000.0001) // SYMBOLS (CMIN->CMAX): -abcdefghijklmnopqrstuvwxyz+
(PID.TID 0000.0001) //                  0.0: .
(PID.TID 0000.0001) // RANGE I (Lo:Hi:Step):(    -2:    83:     1)
(PID.TID 0000.0001) // RANGE J (Lo:Hi:Step):(    45:    -2:    -1)
(PID.TID 0000.0001) // RANGE K (Lo:Hi:Step):(   1:   1:   1)
(PID.TID 0000.0001) // =======================================================
(PID.TID 0000.0001) // =======================================================
(PID.TID 0000.0001) // END OF FIELD                                          =
(PID.TID 0000.0001) // =======================================================
(PID.TID 0000.0001) 
(PID.TID 0000.0001) // =======================================================
(PID.TID 0000.0001) // Field Model Ro_surf (ini_masks_etc)
(PID.TID 0000.0001) // CMIN =          1.000000000000000E+32
(PID.TID 0000.0001) // CMAX =         -1.000000000000000E+32
(PID.TID 0000.0001) // CINT =          0.000000000000000E+00
(PID.TID 0000.0001) // SYMBOLS (CMIN->CMAX): -abcdefghijklmnopqrstuvwxyz+
(PID.TID 0000.0001) //                  0.0: .
(PID.TID 0000.0001) // RANGE I (Lo:Hi:Step):(    -2:    83:     1)
(PID.TID 0000.0001) // RANGE J (Lo:Hi:Step):(    45:    -2:    -1)
(PID.TID 0000.0001) // RANGE K (Lo:Hi:Step):(   1:   1:   1)
(PID.TID 0000.0001) // =======================================================
(PID.TID 0000.0001) // =======================================================
(PID.TID 0000.0001) // END OF FIELD                                          =
(PID.TID 0000.0001) // =======================================================
(PID.TID 0000.0001) 
(PID.TID 0000.0001) // =======================================================
(PID.TID 0000.0001) // Field hFacC at iteration          0
(PID.TID 0000.0001) // CMIN =          1.000000000000000E+00
(PID.TID 0000.0001) // CMAX =          1.000000000000000E+00
(PID.TID 0000.0001) // CINT =          0.000000000000000E+00
(PID.TID 0000.0001) // SYMBOLS (CMIN->CMAX): -abcdefghijklmnopqrstuvwxyz+
(PID.TID 0000.0001) //                  0.0: .
(PID.TID 0000.0001) // RANGE I (Lo:Hi:Step):(    -2:    83:     1)
(PID.TID 0000.0001) // RANGE J (Lo:Hi:Step):(    45:    -2:    -1)
(PID.TID 0000.0001) // RANGE K (Lo:Hi:Step):(   1:   1:   1)
(PID.TID 0000.0001) // =======================================================
(PID.TID 0000.0001) // =======================================================
(PID.TID 0000.0001) // END OF FIELD                                          =
(PID.TID 0000.0001) // =======================================================
(PID.TID 0000.0001) 
(PID.TID 0000.0001) // =======================================================
(PID.TID 0000.0001) // Field hFacW at iteration          0
(PID.TID 0000.0001) // CMIN =          1.000000000000000E+00
(PID.TID 0000.0001) // CMAX =          1.000000000000000E+00
(PID.TID 0000.0001) // CINT =          0.000000000000000E+00
(PID.TID 0000.0001) // SYMBOLS (CMIN->CMAX): -abcdefghijklmnopqrstuvwxyz+
(PID.TID 0000.0001) //                  0.0: .
(PID.TID 0000.0001) // RANGE I (Lo:Hi:Step):(    -2:    83:     1)
(PID.TID 0000.0001) // RANGE J (Lo:Hi:Step):(    45:    -2:    -1)
(PID.TID 0000.0001) // RANGE K (Lo:Hi:Step):(   1:   1:   1)
(PID.TID 0000.0001) // =======================================================
(PID.TID 0000.0001) // =======================================================
(PID.TID 0000.0001) // END OF FIELD                                          =
(PID.TID 0000.0001) // =======================================================
(PID.TID 0000.0001) 
(PID.TID 0000.0001) // =======================================================
(PID.TID 0000.0001) // Field hFacS at iteration          0
(PID.TID 0000.0001) // CMIN =          1.000000000000000E+00
(PID.TID 0000.0001) // CMAX =          1.000000000000000E+00
(PID.TID 0000.0001) // CINT =          0.000000000000000E+00
(PID.TID 0000.0001) // SYMBOLS (CMIN->CMAX): -abcdefghijklmnopqrstuvwxyz+
(PID.TID 0000.0001) //                  0.0: .
(PID.TID 0000.0001) // RANGE I (Lo:Hi:Step):(    -2:    83:     1)
(PID.TID 0000.0001) // RANGE J (Lo:Hi:Step):(    45:    -2:    -1)
(PID.TID 0000.0001) // RANGE K (Lo:Hi:Step):(   1:   1:   1)
(PID.TID 0000.0001) // =======================================================
(PID.TID 0000.0001) // =======================================================
(PID.TID 0000.0001) // END OF FIELD                                          =
(PID.TID 0000.0001) // =======================================================
(PID.TID 0000.0001) 
(PID.TID 0000.0001) 
(PID.TID 0000.0001) // =======================================================
(PID.TID 0000.0001) // Calendar configuration >>> START <<<
(PID.TID 0000.0001) // =======================================================
(PID.TID 0000.0001) 
(PID.TID 0000.0001) modelstart = /* Start time of the model integration [s] */
(PID.TID 0000.0001)                 0.000000000000000E+00
(PID.TID 0000.0001)     ;
(PID.TID 0000.0001) modelend  = /* End time of the model integration [s] */
(PID.TID 0000.0001)                 2.160000000000000E+04
(PID.TID 0000.0001)     ;
(PID.TID 0000.0001) modelstep = /* Time interval for a model forward step [s] */
(PID.TID 0000.0001)                 1.800000000000000E+03
(PID.TID 0000.0001)     ;
(PID.TID 0000.0001) usingGregorianCalendar= /* Calendar Type: Gregorian Calendar */
(PID.TID 0000.0001)                   T
(PID.TID 0000.0001)     ;
(PID.TID 0000.0001) usingJulianCalendar = /* Calendar Type: Julian Calendar */
(PID.TID 0000.0001)                   F
(PID.TID 0000.0001)     ;
(PID.TID 0000.0001) usingModelCalendar  = /* Calendar Type: Model Calendar */
(PID.TID 0000.0001)                   F
(PID.TID 0000.0001)     ;
(PID.TID 0000.0001) modelstartdate YYYYMMDD = /* Model start date YYYY-MM-DD */
(PID.TID 0000.0001)                19790101
(PID.TID 0000.0001)     ;
(PID.TID 0000.0001)   modelstartdate HHMMSS = /* Model start date HH-MM-SS  */
(PID.TID 0000.0001)                       0
(PID.TID 0000.0001)     ;
(PID.TID 0000.0001) modelenddate   YYYYMMDD = /* Model end date YYYY-MM-DD */
(PID.TID 0000.0001)                19790101
(PID.TID 0000.0001)     ;
(PID.TID 0000.0001)   modelenddate   HHMMSS = /* Model end date HH-MM-SS  */
(PID.TID 0000.0001)                   60000
(PID.TID 0000.0001)     ;
(PID.TID 0000.0001) intyears = /* Number of calendar years affected by the integration */
(PID.TID 0000.0001)                       1
(PID.TID 0000.0001)     ;
(PID.TID 0000.0001) intmonths= /* Number of calendar months affected by the integration */
(PID.TID 0000.0001)                       1
(PID.TID 0000.0001)     ;
(PID.TID 0000.0001) intdays = /* Number of calendar days affected by the integration */
(PID.TID 0000.0001)                       1
(PID.TID 0000.0001)     ;
(PID.TID 0000.0001) modeliter0 = /* Base timestep number  */
(PID.TID 0000.0001)                       0
(PID.TID 0000.0001)     ;
(PID.TID 0000.0001) modeliterend = /* Final timestep number  */
(PID.TID 0000.0001)                      12
(PID.TID 0000.0001)     ;
(PID.TID 0000.0001) modelintsteps= /* Number of model timesteps  */
(PID.TID 0000.0001)                      12
(PID.TID 0000.0001)     ;
(PID.TID 0000.0001) 
(PID.TID 0000.0001) // =======================================================
(PID.TID 0000.0001) // Calendar configuration  >>> END <<<
(PID.TID 0000.0001) // =======================================================
(PID.TID 0000.0001) 
(PID.TID 0000.0001) GAD_INIT_FIXED: GAD_OlMinSize=  0  0  1
(PID.TID 0000.0001) 
(PID.TID 0000.0001) // ===================================
(PID.TID 0000.0001) // GAD parameters :
(PID.TID 0000.0001) // ===================================
(PID.TID 0000.0001) tempAdvScheme =   /* Temp. Horiz.Advection scheme selector */
(PID.TID 0000.0001)                       2
(PID.TID 0000.0001)     ;
(PID.TID 0000.0001) tempVertAdvScheme =   /* Temp. Vert. Advection scheme selector */
(PID.TID 0000.0001)                       2
(PID.TID 0000.0001)     ;
(PID.TID 0000.0001) tempMultiDimAdvec =   /* use Muti-Dim Advec method for Temp */
(PID.TID 0000.0001)                   F
(PID.TID 0000.0001)     ;
(PID.TID 0000.0001) tempSOM_Advection = /* use 2nd Order Moment Advection for Temp */
(PID.TID 0000.0001)                   F
(PID.TID 0000.0001)     ;
(PID.TID 0000.0001) AdamsBashforthGt = /* apply Adams-Bashforth extrapolation on Gt */
(PID.TID 0000.0001)                   T
(PID.TID 0000.0001)     ;
(PID.TID 0000.0001) AdamsBashforth_T = /* apply Adams-Bashforth extrapolation on Temp */
(PID.TID 0000.0001)                   F
(PID.TID 0000.0001)     ;
(PID.TID 0000.0001) saltAdvScheme =   /* Salt. Horiz.advection scheme selector */
(PID.TID 0000.0001)                       2
(PID.TID 0000.0001)     ;
(PID.TID 0000.0001) saltVertAdvScheme =   /* Salt. Vert. Advection scheme selector */
(PID.TID 0000.0001)                       2
(PID.TID 0000.0001)     ;
(PID.TID 0000.0001) saltMultiDimAdvec =   /* use Muti-Dim Advec method for Salt */
(PID.TID 0000.0001)                   F
(PID.TID 0000.0001)     ;
(PID.TID 0000.0001) saltSOM_Advection = /* use 2nd Order Moment Advection for Salt */
(PID.TID 0000.0001)                   F
(PID.TID 0000.0001)     ;
(PID.TID 0000.0001) AdamsBashforthGs = /* apply Adams-Bashforth extrapolation on Gs */
(PID.TID 0000.0001)                   F
(PID.TID 0000.0001)     ;
(PID.TID 0000.0001) AdamsBashforth_S = /* apply Adams-Bashforth extrapolation on Salt */
(PID.TID 0000.0001)                   F
(PID.TID 0000.0001)     ;
(PID.TID 0000.0001) // ===================================
(PID.TID 0000.0001) 
(PID.TID 0000.0001) // =======================================================
(PID.TID 0000.0001) // External forcing (EXF) configuration >>> START <<<
(PID.TID 0000.0001) // =======================================================
(PID.TID 0000.0001) 
(PID.TID 0000.0001)  EXF general parameters:
(PID.TID 0000.0001) 
(PID.TID 0000.0001) exf_iprec = /* exf file precision */
(PID.TID 0000.0001)                      64
(PID.TID 0000.0001)     ;
(PID.TID 0000.0001) useExfYearlyFields = /* add extension _YEAR to input file names */
(PID.TID 0000.0001)                   F
(PID.TID 0000.0001)     ;
(PID.TID 0000.0001) twoDigitYear = /* use 2-digit year extension */
(PID.TID 0000.0001)                   F
(PID.TID 0000.0001)     ;
(PID.TID 0000.0001) exf_verbose = /* print more messages to STDOUT */
(PID.TID 0000.0001)                   F
(PID.TID 0000.0001)     ;
(PID.TID 0000.0001) useExfCheckRange = /* check for fields range */
(PID.TID 0000.0001)                   T
(PID.TID 0000.0001)     ;
(PID.TID 0000.0001) exf_monFreq = /* EXF monitor frequency [ s ] */
(PID.TID 0000.0001)                 8.640000000000000E+07
(PID.TID 0000.0001)     ;
(PID.TID 0000.0001) repeatPeriod = /* period for cycling forcing dataset [ s ] */
(PID.TID 0000.0001)                 2.635200000000000E+06
(PID.TID 0000.0001)     ;
(PID.TID 0000.0001) climTempFreeze= /* Minimum climatological temperature [deg.C] */
(PID.TID 0000.0001)                -1.900000000000000E+00
(PID.TID 0000.0001)     ;
(PID.TID 0000.0001) windStressMax = /* Maximum absolute windstress [ Pa ] */
(PID.TID 0000.0001)                 2.000000000000000E+00
(PID.TID 0000.0001)     ;
(PID.TID 0000.0001) stressIsOnCgrid = /* set u,v_stress on Arakawa C-grid */
(PID.TID 0000.0001)                   F
(PID.TID 0000.0001)     ;
(PID.TID 0000.0001) cen2kel = /* conversion of deg. Centigrade to Kelvin [K] */
(PID.TID 0000.0001)                 2.731500000000000E+02
(PID.TID 0000.0001)     ;
(PID.TID 0000.0001) gravity_mks= /* gravitational acceleration [m/s^2] */
(PID.TID 0000.0001)                 9.810000000000000E+00
(PID.TID 0000.0001)     ;
(PID.TID 0000.0001) atmrho =  /* mean atmospheric density [kg/m^3] */
(PID.TID 0000.0001)                 1.200000000000000E+00
(PID.TID 0000.0001)     ;
(PID.TID 0000.0001) atmcp =  /* mean atmospheric specific heat [J/kg/K] */
(PID.TID 0000.0001)                 1.005000000000000E+03
(PID.TID 0000.0001)     ;
(PID.TID 0000.0001) flamb =  /* latent heat of evaporation [J/kg] */
(PID.TID 0000.0001)                 2.500000000000000E+06
(PID.TID 0000.0001)     ;
(PID.TID 0000.0001) flami =  /* latent heat of pure-ice melting [J/kg] */
(PID.TID 0000.0001)                 3.340000000000000E+05
(PID.TID 0000.0001)     ;
(PID.TID 0000.0001) cvapor_fac = /* const. for Saturation calculation [?] */
(PID.TID 0000.0001)                 6.403800000000000E+05
(PID.TID 0000.0001)     ;
(PID.TID 0000.0001) cvapor_exp = /* const. for Saturation calculation [?] */
(PID.TID 0000.0001)                 5.107400000000000E+03
(PID.TID 0000.0001)     ;
(PID.TID 0000.0001) cvapor_fac_ice= /* const. for Saturation calculation [?] */
(PID.TID 0000.0001)                 1.163780000000000E+07
(PID.TID 0000.0001)     ;
(PID.TID 0000.0001) cvapor_exp_ice= /* const. for Saturation calculation [?] */
(PID.TID 0000.0001)                 5.897800000000000E+03
(PID.TID 0000.0001)     ;
(PID.TID 0000.0001) humid_fac = /* humidity coef. in virtual temp. [(kg/kg)^-1] */
(PID.TID 0000.0001)                 6.060000000000000E-01
(PID.TID 0000.0001)     ;
(PID.TID 0000.0001) gamma_blk = /* adiabatic lapse rate [?] */
(PID.TID 0000.0001)                 1.000000000000000E-02
(PID.TID 0000.0001)     ;
(PID.TID 0000.0001) saltsat = /* reduction of Qsat over salty water [-] */
(PID.TID 0000.0001)                 9.800000000000000E-01
(PID.TID 0000.0001)     ;
(PID.TID 0000.0001) noNegativeEvap = /* prevent negative Evaporation */
(PID.TID 0000.0001)                   F
(PID.TID 0000.0001)     ;
(PID.TID 0000.0001) sstExtrapol = /* extrapolation coeff from lev. 1 & 2 to surf [-] */
(PID.TID 0000.0001)                 0.000000000000000E+00
(PID.TID 0000.0001)     ;
(PID.TID 0000.0001) cDrag_1 = /* coef used in drag calculation [?] */
(PID.TID 0000.0001)                 2.700000000000000E-03
(PID.TID 0000.0001)     ;
(PID.TID 0000.0001) cDrag_2 = /* coef used in drag calculation [?] */
(PID.TID 0000.0001)                 1.420000000000000E-04
(PID.TID 0000.0001)     ;
(PID.TID 0000.0001) cDrag_3 = /* coef used in drag calculation [?] */
(PID.TID 0000.0001)                 7.640000000000000E-05
(PID.TID 0000.0001)     ;
(PID.TID 0000.0001) cStanton_1 = /* coef used in Stanton number calculation [?] */
(PID.TID 0000.0001)                 3.270000000000000E-02
(PID.TID 0000.0001)     ;
(PID.TID 0000.0001) cStanton_2 = /* coef used in Stanton number calculation [?] */
(PID.TID 0000.0001)                 1.800000000000000E-02
(PID.TID 0000.0001)     ;
(PID.TID 0000.0001) cDalton = /* coef used in Dalton number calculation [?] */
(PID.TID 0000.0001)                 3.460000000000000E-02
(PID.TID 0000.0001)     ;
(PID.TID 0000.0001) exf_scal_BulkCdn= /* Drag coefficient scaling factor [-] */
(PID.TID 0000.0001)                 1.000000000000000E+00
(PID.TID 0000.0001)     ;
(PID.TID 0000.0001) zolmin = /* minimum stability parameter [?] */
(PID.TID 0000.0001)                -1.000000000000000E+02
(PID.TID 0000.0001)     ;
(PID.TID 0000.0001) psim_fac = /* coef used in turbulent fluxes calculation [-] */
(PID.TID 0000.0001)                 5.000000000000000E+00
(PID.TID 0000.0001)     ;
(PID.TID 0000.0001) zref =  /* reference height [ m ] */
(PID.TID 0000.0001)                 1.000000000000000E+01
(PID.TID 0000.0001)     ;
(PID.TID 0000.0001) hu =  /* height of mean wind [ m ] */
(PID.TID 0000.0001)                 1.000000000000000E+01
(PID.TID 0000.0001)     ;
(PID.TID 0000.0001) ht =  /* height of mean temperature [ m ] */
(PID.TID 0000.0001)                 2.000000000000000E+00
(PID.TID 0000.0001)     ;
(PID.TID 0000.0001) hq =  /* height of mean spec.humidity [ m ] */
(PID.TID 0000.0001)                 2.000000000000000E+00
(PID.TID 0000.0001)     ;
(PID.TID 0000.0001) uMin = /* minimum wind speed [m/s] */
(PID.TID 0000.0001)                 5.000000000000000E-01
(PID.TID 0000.0001)     ;
(PID.TID 0000.0001) useStabilityFct_overIce= /* transfert Coeffs over sea-ice depend on stability */
(PID.TID 0000.0001)                   F
(PID.TID 0000.0001)     ;
(PID.TID 0000.0001) exf_iceCd = /* drag coefficient over sea-ice (fixed) [-] */
(PID.TID 0000.0001)                 1.630000000000000E-03
(PID.TID 0000.0001)     ;
(PID.TID 0000.0001) exf_iceCe = /* transfert coeff. over sea-ice, for Evap (fixed) [-] */
(PID.TID 0000.0001)                 1.630000000000000E-03
(PID.TID 0000.0001)     ;
(PID.TID 0000.0001) exf_iceCh = /* transfert coeff. over sea-ice, Sens.Heat.(fixed)[-] */
(PID.TID 0000.0001)                 1.630000000000000E-03
(PID.TID 0000.0001)     ;
(PID.TID 0000.0001) exf_albedo =  /* Sea-water albedo [-] */
(PID.TID 0000.0001)                 1.000000000000000E-01
(PID.TID 0000.0001)     ;
(PID.TID 0000.0001) useExfZenAlbedo = /* Sea-water albedo varies with zenith angle */
(PID.TID 0000.0001)                   F
(PID.TID 0000.0001)     ;
(PID.TID 0000.0001) select_ZenAlbedo = /* Sea-water albedo computation method */
(PID.TID 0000.0001)                       0
(PID.TID 0000.0001)     ;
(PID.TID 0000.0001) useExfZenIncoming = /* compute incoming solar radiation */
(PID.TID 0000.0001)                   F
(PID.TID 0000.0001)     ;
(PID.TID 0000.0001) ocean_emissivity = /* longwave ocean-surface emissivity [-] */
(PID.TID 0000.0001)                 9.700176366843034E-01
(PID.TID 0000.0001)     ;
(PID.TID 0000.0001) ice_emissivity = /* longwave seaice emissivity [-] */
(PID.TID 0000.0001)                 9.500000000000000E-01
(PID.TID 0000.0001)     ;
(PID.TID 0000.0001) snow_emissivity = /* longwave snow  emissivity [-] */
(PID.TID 0000.0001)                 9.500000000000000E-01
(PID.TID 0000.0001)     ;
(PID.TID 0000.0001) 
(PID.TID 0000.0001)  EXF main CPP flags:
(PID.TID 0000.0001) 
(PID.TID 0000.0001) // USE_EXF_INTERPOLATION:          NOT defined
(PID.TID 0000.0001) // ALLOW_ATM_TEMP:                     defined
(PID.TID 0000.0001) // ALLOW_ATM_WIND (useAtmWind):        defined
(PID.TID 0000.0001) // ALLOW_DOWNWARD_RADIATION:           defined
(PID.TID 0000.0001) // ALLOW_BULKFORMULAE:                 defined
(PID.TID 0000.0001) 
(PID.TID 0000.0001)    Net shortwave flux forcing starts at                0.
(PID.TID 0000.0001)    Net shortwave flux forcing period is                0.
(PID.TID 0000.0001)    Net shortwave flux forcing is read from file:
(PID.TID 0000.0001)    >>    <<
(PID.TID 0000.0001) 
(PID.TID 0000.0001)    Zonal wind forcing starts at                   -1317600.
(PID.TID 0000.0001)    Zonal wind forcing period is                    2635200.
(PID.TID 0000.0001)    Zonal wind forcing is read from file:
(PID.TID 0000.0001)    >>  windx.bin  <<
(PID.TID 0000.0001) 
(PID.TID 0000.0001)    Meridional wind forcing starts at                     0.
(PID.TID 0000.0001)    Meridional wind forcing period is               2635200.
(PID.TID 0000.0001)    Meridional wind forcing is read from file:
(PID.TID 0000.0001)    >>    <<
(PID.TID 0000.0001) 
(PID.TID 0000.0001)    Atmospheric temperature starts at              -1317600.
(PID.TID 0000.0001)    Atmospheric temperature period is               2635200.
(PID.TID 0000.0001)    Atmospheric temperature is read from file:
(PID.TID 0000.0001)    >>  tair_4x.bin  <<
(PID.TID 0000.0001) 
(PID.TID 0000.0001)    Atmospheric specific humidity starts at        -1317600.
(PID.TID 0000.0001)    Atmospheric specific humidity period is         2635200.
(PID.TID 0000.0001)    Atmospheric specific humidity is read from file:
(PID.TID 0000.0001)    >>  qa70_4x.bin  <<
(PID.TID 0000.0001) 
(PID.TID 0000.0001)    Net longwave flux forcing starts at                 0.
(PID.TID 0000.0001)    Net longwave flux forcing period is                 0.
(PID.TID 0000.0001)    Net longwave flux forcing is read from file:
(PID.TID 0000.0001)    >>    <<
(PID.TID 0000.0001) 
(PID.TID 0000.0001)    Precipitation data set starts at               -1317600.
(PID.TID 0000.0001)    Precipitation data period is                    2635200.
(PID.TID 0000.0001)    Precipitation data is read from file:
(PID.TID 0000.0001)    >>  const_00.bin  <<
(PID.TID 0000.0001) 
(PID.TID 0000.0001) // EXF_READ_EVAP:                  NOT defined
(PID.TID 0000.0001) 
(PID.TID 0000.0001) // ALLOW_RUNOFF:                       defined
(PID.TID 0000.0001)    Runoff starts at               0.
(PID.TID 0000.0001)    Runoff period is               0.
(PID.TID 0000.0001)    Runoff is read from file:
(PID.TID 0000.0001)    >>    <<
(PID.TID 0000.0001) 
(PID.TID 0000.0001)    Downward shortwave flux forcing starts at         -1317600.
(PID.TID 0000.0001)    Downward shortwave flux forcing period is          2635200.
(PID.TID 0000.0001)    Downward shortwave flux forcing is read from file:
(PID.TID 0000.0001)    >>  dsw_100.bin  <<
(PID.TID 0000.0001) 
(PID.TID 0000.0001)    Downward longwave flux forcing starts at          -1317600.
(PID.TID 0000.0001)    Downward longwave flux forcing period is           2635200.
(PID.TID 0000.0001)    Downward longwave flux forcing is read from file:
(PID.TID 0000.0001)    >>  dlw_250.bin  <<
(PID.TID 0000.0001) 
(PID.TID 0000.0001)    Atmospheric pressure forcing starts at                0.
(PID.TID 0000.0001)    Atmospheric pressure forcing period is                0.
(PID.TID 0000.0001)    Atmospheric pressureforcing is read from file:
(PID.TID 0000.0001)    >>    <<
(PID.TID 0000.0001) 
(PID.TID 0000.0001) // =======================================================
(PID.TID 0000.0001) // External forcing (EXF) climatology configuration :
(PID.TID 0000.0001) // =======================================================
(PID.TID 0000.0001) 
(PID.TID 0000.0001) // ALLOW_CLIMSST_RELAXATION:           defined
(PID.TID 0000.0001) // ALLOW_CLIMSSS_RELAXATION:           defined
(PID.TID 0000.0001) 
(PID.TID 0000.0001)    Climatological SST starts at            -1317600.
(PID.TID 0000.0001)    Climatological SST period is             2635200.
(PID.TID 0000.0001)    Climatological SST is read from file:
(PID.TID 0000.0001)    >>  tocn.bin  <<
(PID.TID 0000.0001) 
(PID.TID 0000.0001)    Climatological SSS starts at                   0.
(PID.TID 0000.0001)    Climatological SSS period is             2635200.
(PID.TID 0000.0001)    Climatological SSS is read from file:
(PID.TID 0000.0001)    >>    <<
(PID.TID 0000.0001) 
(PID.TID 0000.0001) // =======================================================
(PID.TID 0000.0001) // External forcing (EXF) configuration  >>> END <<<
(PID.TID 0000.0001) // =======================================================
(PID.TID 0000.0001) 
(PID.TID 0000.0001) // =======================================================
(PID.TID 0000.0001) // Seaice configuration (SEAICE_PARM01) >>> START <<<
(PID.TID 0000.0001) // =======================================================
(PID.TID 0000.0001) 
(PID.TID 0000.0001)    Seaice time stepping configuration   > START <
(PID.TID 0000.0001)    ----------------------------------------------
(PID.TID 0000.0001) SEAICE_deltaTtherm= /* thermodynamic timestep */
(PID.TID 0000.0001)                 1.800000000000000E+03
(PID.TID 0000.0001)     ;
(PID.TID 0000.0001) SEAICE_deltaTdyn  = /* dynamic timestep */
(PID.TID 0000.0001)                 1.800000000000000E+03
(PID.TID 0000.0001)     ;
(PID.TID 0000.0001) SEAICE_deltaTevp  = /* EVP timestep */
(PID.TID 0000.0001)                 1.234567000000000E+05
(PID.TID 0000.0001)     ;
(PID.TID 0000.0001) SEAICErestoreUnderIce  = /* restore T and S under ice */
(PID.TID 0000.0001)                   F
(PID.TID 0000.0001)     ;
(PID.TID 0000.0001) 
(PID.TID 0000.0001)    Seaice dynamics configuration   > START <
(PID.TID 0000.0001)    ------------------------------------------
(PID.TID 0000.0001) SEAICEuseDYNAMICS = /* use dynamics */
(PID.TID 0000.0001)                   T
(PID.TID 0000.0001)     ;
(PID.TID 0000.0001) model grid type   = /* type of sea ice model grid */
(PID.TID 0000.0001)               'C-GRID'
(PID.TID 0000.0001)     ;
(PID.TID 0000.0001) SEAICEuseEVP      = /* use EVP solver rather than LSR */
(PID.TID 0000.0001)                   F
(PID.TID 0000.0001)     ;
(PID.TID 0000.0001) SEAICEuseFREEDRIFT = /* use free drift solution */
(PID.TID 0000.0001)                   F
(PID.TID 0000.0001)     ;
(PID.TID 0000.0001) OCEAN_drag        = /* air-ocean drag coefficient */
(PID.TID 0000.0001)                 8.154100000000000E-04
(PID.TID 0000.0001)     ;
(PID.TID 0000.0001) SEAICE_drag       = /* air-ice drag coefficient */
(PID.TID 0000.0001)                 2.000000000000000E-03
(PID.TID 0000.0001)     ;
(PID.TID 0000.0001) SEAICE_drag_south      = /* Southern Ocean SEAICE_drag */
(PID.TID 0000.0001)                 2.000000000000000E-03
(PID.TID 0000.0001)     ;
(PID.TID 0000.0001) SEAICE_waterDrag  = /* water-ice drag * density */
(PID.TID 0000.0001)                 5.350800000000000E+00
(PID.TID 0000.0001)     ;
(PID.TID 0000.0001) SEAICE_waterDrag_south = /* Southern Ocean waterDrag */
(PID.TID 0000.0001)                 5.350800000000000E+00
(PID.TID 0000.0001)     ;
(PID.TID 0000.0001) SEAICEuseTILT     = /* include surface tilt in dyna. */
(PID.TID 0000.0001)                   T
(PID.TID 0000.0001)     ;
(PID.TID 0000.0001) SEAICEuseTEM      = /* use truncated ellipse rheology */
(PID.TID 0000.0001)                   F
(PID.TID 0000.0001)     ;
(PID.TID 0000.0001) SEAICE_strength   = /* sea-ice strength Pstar */
(PID.TID 0000.0001)                 2.678000000000000E+04
(PID.TID 0000.0001)     ;
(PID.TID 0000.0001) SEAICEpresH0   = /* sea-ice strength Heff threshold */
(PID.TID 0000.0001)                 1.000000000000000E+00
(PID.TID 0000.0001)     ;
(PID.TID 0000.0001) SEAICEpresPow0 = /* exponent for Heff<SEAICEpresH0 */
(PID.TID 0000.0001)                       1
(PID.TID 0000.0001)     ;
(PID.TID 0000.0001) SEAICEpresPow1 = /* exponent for Heff>SEAICEpresH0 */
(PID.TID 0000.0001)                       1
(PID.TID 0000.0001)     ;
(PID.TID 0000.0001) SEAICEetaZmethod = /* method computing eta at Z-point */
(PID.TID 0000.0001)                       0
(PID.TID 0000.0001)     ;
(PID.TID 0000.0001) SEAICE_zetaMin    = /* lower bound for viscosity */
(PID.TID 0000.0001)                 0.000000000000000E+00
(PID.TID 0000.0001)     ;
(PID.TID 0000.0001) SEAICE_eccen    = /* elliptical yield curve eccent */
(PID.TID 0000.0001)                 2.000000000000000E+00
(PID.TID 0000.0001)     ;
(PID.TID 0000.0001) SEAICEstressFactor    = /* wind stress scaling factor */
(PID.TID 0000.0001)                 1.000000000000000E+00
(PID.TID 0000.0001)     ;
(PID.TID 0000.0001) SEAICE_airTurnAngle    = /* air-ice turning angle */
(PID.TID 0000.0001)                 0.000000000000000E+00
(PID.TID 0000.0001)     ;
(PID.TID 0000.0001) SEAICE_waterTurnAngle  = /* ice-water turning angle */
(PID.TID 0000.0001)                 0.000000000000000E+00
(PID.TID 0000.0001)     ;
(PID.TID 0000.0001) SEAICEuseMetricTerms = /* use metric terms */
(PID.TID 0000.0001)                   T
(PID.TID 0000.0001)     ;
(PID.TID 0000.0001) SEAICE_no_slip    = /* no slip boundary conditions */
(PID.TID 0000.0001)                   F
(PID.TID 0000.0001)     ;
(PID.TID 0000.0001) SEAICE_clipVeloctities = /* impose max. vels. */
(PID.TID 0000.0001)                   F
(PID.TID 0000.0001)     ;
(PID.TID 0000.0001) useHB87stressCoupling  = /* altern. ice-ocean stress */
(PID.TID 0000.0001)                   F
(PID.TID 0000.0001)     ;
(PID.TID 0000.0001) SEAICE_maskRHS    = /* mask RHS of solver */
(PID.TID 0000.0001)                   F
(PID.TID 0000.0001)     ;
(PID.TID 0000.0001) LSR_mixIniGuess = /* mix free-drift sol. into LSR initial Guess */
(PID.TID 0000.0001)                       1
(PID.TID 0000.0001)     ;
(PID.TID 0000.0001) SOLV_MAX_ITERS    = /* max. number of LSR solver steps */
(PID.TID 0000.0001)                    1500
(PID.TID 0000.0001)     ;
(PID.TID 0000.0001) SEAICE_LSRrelaxU  = /* LSR solver: relaxation parameter */
(PID.TID 0000.0001)                 9.500000000000000E-01
(PID.TID 0000.0001)     ;
(PID.TID 0000.0001) SEAICE_LSRrelaxV  = /* LSR solver: relaxation parameter */
(PID.TID 0000.0001)                 9.500000000000000E-01
(PID.TID 0000.0001)     ;
(PID.TID 0000.0001) LSR_ERROR         = /* sets accuracy of LSR solver */
(PID.TID 0000.0001)                 1.000000000000000E-12
(PID.TID 0000.0001)     ;
(PID.TID 0000.0001) SOLV_NCHECK       = /* test interval for LSR solver */
(PID.TID 0000.0001)                       2
(PID.TID 0000.0001)     ;
(PID.TID 0000.0001) NPSEUDOTIMESTEPS  = /* num. of extra pseudo time steps */
(PID.TID 0000.0001)                       2
(PID.TID 0000.0001)     ;
(PID.TID 0000.0001) 
(PID.TID 0000.0001)    Seaice advection diffusion config,   > START <
(PID.TID 0000.0001)    -----------------------------------------------
(PID.TID 0000.0001)    ==> advection diffusion done in pkg ThSIce
(PID.TID 0000.0001) 
(PID.TID 0000.0001)    Seaice thermodynamics configuration   > START <
(PID.TID 0000.0001)    -----------------------------------------------
(PID.TID 0000.0001) SEAICE_rhoIce     = /* density of sea ice (kg/m3) */
(PID.TID 0000.0001)                 9.100000000000000E+02
(PID.TID 0000.0001)     ;
(PID.TID 0000.0001) SEAICE_rhoSnow    = /* density of snow (kg/m3) */
(PID.TID 0000.0001)                 3.300000000000000E+02
(PID.TID 0000.0001)     ;
(PID.TID 0000.0001) SEAICE_rhoAir     = /* density of air (kg/m3) */
(PID.TID 0000.0001)                 1.200000000000000E+00
(PID.TID 0000.0001)     ;
(PID.TID 0000.0001) usePW79thermodynamics  = /* default 0-layer TD */
(PID.TID 0000.0001)                   F
(PID.TID 0000.0001)     ;
(PID.TID 0000.0001)    pkg/seaice thermodynamics is OFF
(PID.TID 0000.0001) 
(PID.TID 0000.0001)    Seaice initialization and IO config.,   > START <
(PID.TID 0000.0001)    -------------------------------------------------
(PID.TID 0000.0001) SEAICE_initialHEFF= /* initial sea-ice thickness */
(PID.TID 0000.0001)                 0.000000000000000E+00
(PID.TID 0000.0001)     ;
(PID.TID 0000.0001) AreaFile = /* Initial ice concentration File */
(PID.TID 0000.0001)               ''
(PID.TID 0000.0001)     ;
(PID.TID 0000.0001) HeffFile = /* Initial effective ice thickness File */
(PID.TID 0000.0001)               ''
(PID.TID 0000.0001)     ;
(PID.TID 0000.0001) HsnowFile = /* Initial snow thickness File */
(PID.TID 0000.0001)               ''
(PID.TID 0000.0001)     ;
(PID.TID 0000.0001) uIceFile = /* Initial U-ice velocity File */
(PID.TID 0000.0001)               ''
(PID.TID 0000.0001)     ;
(PID.TID 0000.0001) vIceFile = /* Initial V-ice velocity File */
(PID.TID 0000.0001)               ''
(PID.TID 0000.0001)     ;
(PID.TID 0000.0001) SEAICEwriteState  = /* write sea ice state to file */
(PID.TID 0000.0001)                   T
(PID.TID 0000.0001)     ;
(PID.TID 0000.0001) SEAICE_monFreq  = /* monitor frequency */
(PID.TID 0000.0001)                 2.160000000000000E+04
(PID.TID 0000.0001)     ;
(PID.TID 0000.0001) SEAICE_dumpFreq   = /* dump frequency */
(PID.TID 0000.0001)                 8.640000000000000E+05
(PID.TID 0000.0001)     ;
(PID.TID 0000.0001) SEAICE_taveFreq   = /* time-averaging frequency */
(PID.TID 0000.0001)                 0.000000000000000E+00
(PID.TID 0000.0001)     ;
(PID.TID 0000.0001) SEAICE_mon_stdio  = /* write monitor to std-outp */
(PID.TID 0000.0001)                   T
(PID.TID 0000.0001)     ;
(PID.TID 0000.0001) SEAICE_dump_mdsio = /* write snap-shot   using MDSIO */
(PID.TID 0000.0001)                   T
(PID.TID 0000.0001)     ;
(PID.TID 0000.0001) SEAICE_tave_mdsio = /* write TimeAverage using MDSIO */
(PID.TID 0000.0001)                   T
(PID.TID 0000.0001)     ;
(PID.TID 0000.0001) 
(PID.TID 0000.0001)    Seaice regularization numbers,   > START <
(PID.TID 0000.0001)    -----------------------------------------------
(PID.TID 0000.0001) SEAICE_EPS        = /* reduce derivative singularities */
(PID.TID 0000.0001)                 1.000000000000000E-10
(PID.TID 0000.0001)     ;
(PID.TID 0000.0001) SEAICE_EPS_SQ     = /* reduce derivative singularities */
(PID.TID 0000.0001)                 1.000000000000000E-20
(PID.TID 0000.0001)     ;
(PID.TID 0000.0001) SEAICE_area_reg   = /* reduce derivative singularities */
(PID.TID 0000.0001)                 1.000000000000000E-05
(PID.TID 0000.0001)     ;
(PID.TID 0000.0001) SEAICE_hice_reg   = /* reduce derivative singularities */
(PID.TID 0000.0001)                 5.000000000000000E-02
(PID.TID 0000.0001)     ;
(PID.TID 0000.0001) SEAICE_area_floor = /* reduce derivative singularities */
(PID.TID 0000.0001)                 1.000000000000000E-05
(PID.TID 0000.0001)     ;
(PID.TID 0000.0001) 
(PID.TID 0000.0001) // =======================================================
(PID.TID 0000.0001) // Seaice configuration (SEAICE_PARM01) >>> END <<<
(PID.TID 0000.0001) // =======================================================
(PID.TID 0000.0001) 
(PID.TID 0000.0001) ------------------------------------------------------------
(PID.TID 0000.0001) DIAGNOSTICS_SET_LEVELS: done
(PID.TID 0000.0001)  Total Nb of available Diagnostics: ndiagt=   240
(PID.TID 0000.0001)  write list of available Diagnostics to file: available_diagnostics.log
(PID.TID 0000.0001) SETDIAG: Allocate  1 x  1 Levels for Diagnostic #   140 SI_Fract
(PID.TID 0000.0001) SETDIAG: Allocate  1 x  1 Levels for Diagnostic #   141 SI_Thick
(PID.TID 0000.0001) - NOTE - SETDIAG: Counter-mate #   140 SI_Fract is already set
(PID.TID 0000.0001) SETDIAG: Allocate  1 x  1 Levels for Diagnostic #    26 THETA
(PID.TID 0000.0001) SETDIAG: Allocate  1 x  1 Levels for Diagnostic #   143 SI_Tsrf
(PID.TID 0000.0001) - NOTE - SETDIAG: Counter-mate #   140 SI_Fract is already set
(PID.TID 0000.0001) SETDIAG: Allocate  1 x  1 Levels for Diagnostic #   154 SIflx2oc
(PID.TID 0000.0001) SETDIAG: Allocate  1 x  1 Levels for Diagnostic #   155 SIfrw2oc
(PID.TID 0000.0001) SETDIAG: Allocate  1 x  1 Levels for Diagnostic #   156 SIsaltFx
(PID.TID 0000.0001) SETDIAG: Allocate  1 x  1 Levels for Diagnostic #   152 SIflxAtm
(PID.TID 0000.0001) SETDIAG: Allocate  1 x  1 Levels for Diagnostic #   153 SIfrwAtm
(PID.TID 0000.0001) SETDIAG: Allocate  1 x  1 Levels for Diagnostic #   183 SIuice
(PID.TID 0000.0001) SETDIAG: Allocate  1 x  1 Levels for Diagnostic #   184 SIvice
(PID.TID 0000.0001) SETDIAG: Allocate  1 x  1 Levels for Diagnostic #   183 SIuice
(PID.TID 0000.0001) SETDIAG: Allocate  1 x  1 Levels for Diagnostic #   184 SIvice
(PID.TID 0000.0001) SETDIAG: Allocate  1 x  1 Levels for Diagnostic #   177 SIheff
(PID.TID 0000.0001) SETDIAG: Allocate  1 x  1 Levels for Diagnostic #   140 SI_Fract
(PID.TID 0000.0001) SETDIAG: Allocate  1 x  1 Levels for Diagnostic #   141 SI_Thick
(PID.TID 0000.0001) - NOTE - SETDIAG: Counter-mate #   140 SI_Fract is already set
(PID.TID 0000.0001) SETDIAG: Allocate  1 x  1 Levels for Diagnostic #   143 SI_Tsrf
(PID.TID 0000.0001) - NOTE - SETDIAG: Counter-mate #   140 SI_Fract is already set
(PID.TID 0000.0001) SETDIAG: Allocate  1 x  1 Levels for Diagnostic #    26 THETA
(PID.TID 0000.0001)   space allocated for all diagnostics:      18 levels
(PID.TID 0000.0001)   set mate pointer for diag #   183  SIuice   , Parms: UU      M1 , mate:   184
(PID.TID 0000.0001)   set mate pointer for diag #   184  SIvice   , Parms: VV      M1 , mate:   183
(PID.TID 0000.0001)   set mate pointer for diag #   183  SIuice   , Parms: UU      M1 , mate:   184
(PID.TID 0000.0001)   set mate pointer for diag #   184  SIvice   , Parms: VV      M1 , mate:   183
(PID.TID 0000.0001) DIAGNOSTICS_SET_POINTERS: Set levels for Outp.Stream: iceDiag
(PID.TID 0000.0001)  Levels:       1.
(PID.TID 0000.0001) DIAGNOSTICS_SET_POINTERS: Set levels for Outp.Stream: snapshot
(PID.TID 0000.0001)  Levels:       1.
(PID.TID 0000.0001) DIAGNOSTICS_SET_POINTERS: done
(PID.TID 0000.0001) ------------------------------------------------------------
(PID.TID 0000.0001) DIAGSTATS_SET_REGIONS: define no region
(PID.TID 0000.0001) ------------------------------------------------------------
(PID.TID 0000.0001) SETDIAG: Allocate  1 Levels for Stats-Diag #   140 SI_Fract
(PID.TID 0000.0001) SETDIAG: Allocate  1 Levels for Stats-Diag #   141 SI_Thick
(PID.TID 0000.0001) - NOTE - SETDIAG: Counter Diagnostic #   140 SI_Fract has already been set
(PID.TID 0000.0001) SETDIAG: Allocate  1 Levels for Stats-Diag #    26 THETA
(PID.TID 0000.0001) SETDIAG: Allocate  1 Levels for Stats-Diag #   143 SI_Tsrf
(PID.TID 0000.0001) - NOTE - SETDIAG: Counter Diagnostic #   140 SI_Fract has already been set
(PID.TID 0000.0001) SETDIAG: Allocate  1 Levels for Stats-Diag #   144 SI_Tice1
(PID.TID 0000.0001) - NOTE - SETDIAG: Counter Diagnostic #   140 SI_Fract has already been set
(PID.TID 0000.0001) SETDIAG: Allocate  1 Levels for Stats-Diag #   145 SI_Tice2
(PID.TID 0000.0001) - NOTE - SETDIAG: Counter Diagnostic #   140 SI_Fract has already been set
(PID.TID 0000.0001) SETDIAG: Allocate  1 Levels for Stats-Diag #   154 SIflx2oc
(PID.TID 0000.0001) SETDIAG: Allocate  1 Levels for Stats-Diag #   155 SIfrw2oc
(PID.TID 0000.0001) SETDIAG: Allocate  1 Levels for Stats-Diag #   156 SIsaltFx
(PID.TID 0000.0001) SETDIAG: Allocate  1 Levels for Stats-Diag #   152 SIflxAtm
(PID.TID 0000.0001) SETDIAG: Allocate  1 Levels for Stats-Diag #   153 SIfrwAtm
(PID.TID 0000.0001) SETDIAG: Allocate  1 Levels for Stats-Diag #   142 SI_SnowH
(PID.TID 0000.0001) - NOTE - SETDIAG: Counter Diagnostic #   140 SI_Fract has already been set
(PID.TID 0000.0001) SETDIAG: Allocate  1 Levels for Stats-Diag #   183 SIuice
(PID.TID 0000.0001) SETDIAG: Allocate  1 Levels for Stats-Diag #   184 SIvice
(PID.TID 0000.0001)   space allocated for all stats-diags:      14 levels
(PID.TID 0000.0001) DIAGSTATS_SET_POINTERS: done
(PID.TID 0000.0001) ------------------------------------------------------------
(PID.TID 0000.0001) DIAGSTATS_INI_IO: open file: iceStDiag.0000000000.txt , unit=     9
(PID.TID 0000.0001) %MON fCori_max                    =   0.0000000000000E+00
(PID.TID 0000.0001) %MON fCori_min                    =   0.0000000000000E+00
(PID.TID 0000.0001) %MON fCori_mean                   =   0.0000000000000E+00
(PID.TID 0000.0001) %MON fCori_sd                     =   0.0000000000000E+00
(PID.TID 0000.0001) %MON fCoriG_max                   =   0.0000000000000E+00
(PID.TID 0000.0001) %MON fCoriG_min                   =   0.0000000000000E+00
(PID.TID 0000.0001) %MON fCoriG_mean                  =   0.0000000000000E+00
(PID.TID 0000.0001) %MON fCoriG_sd                    =   0.0000000000000E+00
(PID.TID 0000.0001) %MON fCoriCos_max                 =   0.0000000000000E+00
(PID.TID 0000.0001) %MON fCoriCos_min                 =   0.0000000000000E+00
(PID.TID 0000.0001) %MON fCoriCos_mean                =   0.0000000000000E+00
(PID.TID 0000.0001) %MON fCoriCos_sd                  =   0.0000000000000E+00
(PID.TID 0000.0001) INI_CG2D: CG2D normalisation factor =  1.0000000000000001E-01
(PID.TID 0000.0001) 
(PID.TID 0000.0001) // =======================================================
(PID.TID 0000.0001) // Model configuration
(PID.TID 0000.0001) // =======================================================
(PID.TID 0000.0001) //
(PID.TID 0000.0001) // "Physical" paramters ( PARM01 in namelist )
(PID.TID 0000.0001) //
(PID.TID 0000.0001) buoyancyRelation = /* Type of relation to get Buoyancy */
(PID.TID 0000.0001)               'OCEANIC'
(PID.TID 0000.0001)     ;
(PID.TID 0000.0001) fluidIsAir   =  /* fluid major constituent is Air */
(PID.TID 0000.0001)                   F
(PID.TID 0000.0001)     ;
(PID.TID 0000.0001) fluidIsWater =  /* fluid major constituent is Water */
(PID.TID 0000.0001)                   T
(PID.TID 0000.0001)     ;
(PID.TID 0000.0001) usingPCoords =  /* use p (or p*) vertical coordinate */
(PID.TID 0000.0001)                   F
(PID.TID 0000.0001)     ;
(PID.TID 0000.0001) usingZCoords =  /* use z (or z*) vertical coordinate */
(PID.TID 0000.0001)                   T
(PID.TID 0000.0001)     ;
(PID.TID 0000.0001) tRef =   /* Reference temperature profile ( oC or K ) */
(PID.TID 0000.0001)                -1.620000000000000E+00       /* K =  1 */
(PID.TID 0000.0001)     ;
(PID.TID 0000.0001) sRef =   /* Reference salinity profile ( psu ) */
(PID.TID 0000.0001)                 3.000000000000000E+01       /* K =  1 */
(PID.TID 0000.0001)     ;
(PID.TID 0000.0001) viscAh  =   /* Lateral eddy viscosity ( m^2/s ) */
(PID.TID 0000.0001)                 3.000000000000000E+02
(PID.TID 0000.0001)     ;
(PID.TID 0000.0001) viscAhMax = /* Maximum lateral eddy viscosity ( m^2/s ) */
(PID.TID 0000.0001)                 1.000000000000000E+21
(PID.TID 0000.0001)     ;
(PID.TID 0000.0001) viscAhGrid = /* Grid dependent lateral eddy viscosity ( non-dim. ) */
(PID.TID 0000.0001)                 0.000000000000000E+00
(PID.TID 0000.0001)     ;
(PID.TID 0000.0001) useFullLeith = /* Use Full Form of Leith Viscosity on/off flag*/
(PID.TID 0000.0001)                   F
(PID.TID 0000.0001)     ;
(PID.TID 0000.0001) useStrainTensionVisc= /* Use StrainTension Form of Viscous Operator flag*/
(PID.TID 0000.0001)                   F
(PID.TID 0000.0001)     ;
(PID.TID 0000.0001) useAreaViscLength = /* Use area for visc length instead of geom. mean*/
(PID.TID 0000.0001)                   F
(PID.TID 0000.0001)     ;
(PID.TID 0000.0001) viscC2leith = /* Leith harmonic visc. factor (on grad(vort),non-dim.) */
(PID.TID 0000.0001)                 0.000000000000000E+00
(PID.TID 0000.0001)     ;
(PID.TID 0000.0001) viscC2leithD = /* Leith harmonic viscosity factor (on grad(div),non-dim.)*/
(PID.TID 0000.0001)                 0.000000000000000E+00
(PID.TID 0000.0001)     ;
(PID.TID 0000.0001) viscC2smag = /* Smagorinsky harmonic viscosity factor (non-dim.) */
(PID.TID 0000.0001)                 0.000000000000000E+00
(PID.TID 0000.0001)     ;
(PID.TID 0000.0001) viscA4  =   /* Lateral biharmonic viscosity ( m^4/s ) */
(PID.TID 0000.0001)                 0.000000000000000E+00
(PID.TID 0000.0001)     ;
(PID.TID 0000.0001) viscA4Max = /* Maximum biharmonic viscosity ( m^2/s ) */
(PID.TID 0000.0001)                 1.000000000000000E+21
(PID.TID 0000.0001)     ;
(PID.TID 0000.0001) viscA4Grid = /* Grid dependent biharmonic viscosity ( non-dim. ) */
(PID.TID 0000.0001)                 0.000000000000000E+00
(PID.TID 0000.0001)     ;
(PID.TID 0000.0001) viscC4leith = /* Leith biharm viscosity factor (on grad(vort), non-dim.)*/
(PID.TID 0000.0001)                 0.000000000000000E+00
(PID.TID 0000.0001)     ;
(PID.TID 0000.0001) viscC4leithD = /* Leith biharm viscosity factor (on grad(div), non-dim.) */
(PID.TID 0000.0001)                 0.000000000000000E+00
(PID.TID 0000.0001)     ;
(PID.TID 0000.0001) viscC4Smag = /* Smagorinsky biharm viscosity factor (non-dim) */
(PID.TID 0000.0001)                 0.000000000000000E+00
(PID.TID 0000.0001)     ;
(PID.TID 0000.0001) no_slip_sides =  /* Viscous BCs: No-slip sides */
(PID.TID 0000.0001)                   F
(PID.TID 0000.0001)     ;
(PID.TID 0000.0001) sideDragFactor = /* side-drag scaling factor (non-dim) */
(PID.TID 0000.0001)                 2.000000000000000E+00
(PID.TID 0000.0001)     ;
(PID.TID 0000.0001) viscArNr = /* vertical profile of vertical viscosity ( m^2/s )*/
(PID.TID 0000.0001)                 3.000000000000000E-02       /* K =  1 */
(PID.TID 0000.0001)     ;
(PID.TID 0000.0001) no_slip_bottom =  /* Viscous BCs: No-slip bottom */
(PID.TID 0000.0001)                   T
(PID.TID 0000.0001)     ;
(PID.TID 0000.0001) bottomDragLinear = /* linear bottom-drag coefficient ( m/s ) */
(PID.TID 0000.0001)                 0.000000000000000E+00
(PID.TID 0000.0001)     ;
(PID.TID 0000.0001) bottomDragQuadratic = /* quadratic bottom-drag coefficient (-) */
(PID.TID 0000.0001)                 5.000000000000000E-03
(PID.TID 0000.0001)     ;
(PID.TID 0000.0001) diffKhT =   /* Laplacian diffusion of heat laterally ( m^2/s ) */
(PID.TID 0000.0001)                 0.000000000000000E+00
(PID.TID 0000.0001)     ;
(PID.TID 0000.0001) diffK4T =   /* Biharmonic diffusion of heat laterally ( m^4/s ) */
(PID.TID 0000.0001)                 0.000000000000000E+00
(PID.TID 0000.0001)     ;
(PID.TID 0000.0001) diffKhS =   /* Laplacian diffusion of salt laterally ( m^2/s ) */
(PID.TID 0000.0001)                 0.000000000000000E+00
(PID.TID 0000.0001)     ;
(PID.TID 0000.0001) diffK4S =   /* Biharmonic diffusion of salt laterally ( m^4/s ) */
(PID.TID 0000.0001)                 0.000000000000000E+00
(PID.TID 0000.0001)     ;
(PID.TID 0000.0001) diffKrNrT = /* vertical profile of vertical diffusion of Temp ( m^2/s )*/
(PID.TID 0000.0001)                 0.000000000000000E+00       /* K =  1 */
(PID.TID 0000.0001)     ;
(PID.TID 0000.0001) diffKrNrS = /* vertical profile of vertical diffusion of Salt ( m^2/s )*/
(PID.TID 0000.0001)                 0.000000000000000E+00       /* K =  1 */
(PID.TID 0000.0001)     ;
(PID.TID 0000.0001) diffKrBL79surf = /* Surface diffusion for Bryan and Lewis 79 ( m^2/s ) */
(PID.TID 0000.0001)                 0.000000000000000E+00
(PID.TID 0000.0001)     ;
(PID.TID 0000.0001) diffKrBL79deep = /* Deep diffusion for Bryan and Lewis 1979 ( m^2/s ) */
(PID.TID 0000.0001)                 0.000000000000000E+00
(PID.TID 0000.0001)     ;
(PID.TID 0000.0001) diffKrBL79scl = /* Depth scale for Bryan and Lewis 1979 ( m ) */
(PID.TID 0000.0001)                 2.000000000000000E+02
(PID.TID 0000.0001)     ;
(PID.TID 0000.0001) diffKrBL79Ho = /* Turning depth for Bryan and Lewis 1979 ( m ) */
(PID.TID 0000.0001)                -2.000000000000000E+03
(PID.TID 0000.0001)     ;
(PID.TID 0000.0001) ivdc_kappa = /* Implicit Vertical Diffusivity for Convection ( m^2/s) */
(PID.TID 0000.0001)                 0.000000000000000E+00
(PID.TID 0000.0001)     ;
(PID.TID 0000.0001) hMixCriteria=  /* Criteria for mixed-layer diagnostic */
(PID.TID 0000.0001)                -8.000000000000000E-01
(PID.TID 0000.0001)     ;
(PID.TID 0000.0001) dRhoSmall =  /* Parameter for mixed-layer diagnostic */
(PID.TID 0000.0001)                 1.000000000000000E-06
(PID.TID 0000.0001)     ;
(PID.TID 0000.0001) hMixSmooth=  /* Smoothing parameter for mixed-layer diagnostic */
(PID.TID 0000.0001)                 0.000000000000000E+00
(PID.TID 0000.0001)     ;
(PID.TID 0000.0001) eosType =  /* Type of Equation of State */
(PID.TID 0000.0001)               'LINEAR'
(PID.TID 0000.0001)     ;
(PID.TID 0000.0001) tAlpha = /* Linear EOS thermal expansion coefficient ( 1/oC ) */
(PID.TID 0000.0001)                 2.000000000000000E-04
(PID.TID 0000.0001)     ;
(PID.TID 0000.0001) sBeta  = /* Linear EOS haline contraction coefficient ( 1/psu ) */
(PID.TID 0000.0001)                 0.000000000000000E+00
(PID.TID 0000.0001)     ;
(PID.TID 0000.0001) rhoNil    = /* Reference density for Linear EOS ( kg/m^3 ) */
(PID.TID 0000.0001)                 1.030000000000000E+03
(PID.TID 0000.0001)     ;
(PID.TID 0000.0001) celsius2K = /* 0 degree Celsius converted to Kelvin ( K ) */
(PID.TID 0000.0001)                 2.731500000000000E+02
(PID.TID 0000.0001)     ;
(PID.TID 0000.0001) rhoConst  = /* Reference density (Boussinesq)  ( kg/m^3 ) */
(PID.TID 0000.0001)                 1.030000000000000E+03
(PID.TID 0000.0001)     ;
(PID.TID 0000.0001) rhoFacC = /* normalized Reference density @ cell-Center (-) */
(PID.TID 0000.0001)                 1.000000000000000E+00       /* K =  1 */
(PID.TID 0000.0001)     ;
(PID.TID 0000.0001) rhoFacF = /* normalized Reference density @ W-Interface (-) */
(PID.TID 0000.0001)     2 @  1.000000000000000E+00              /* K =  1:  2 */
(PID.TID 0000.0001)     ;
(PID.TID 0000.0001) rhoConstFresh = /* Fresh-water reference density ( kg/m^3 ) */
(PID.TID 0000.0001)                 1.000000000000000E+03
(PID.TID 0000.0001)     ;
(PID.TID 0000.0001) gravity =   /* Gravitational acceleration ( m/s^2 ) */
(PID.TID 0000.0001)                 9.810000000000000E+00
(PID.TID 0000.0001)     ;
(PID.TID 0000.0001) gBaro =   /* Barotropic gravity ( m/s^2 ) */
(PID.TID 0000.0001)                 9.810000000000000E+00
(PID.TID 0000.0001)     ;
(PID.TID 0000.0001) rotationPeriod =   /* Rotation Period ( s ) */
(PID.TID 0000.0001)                 8.616400000000000E+04
(PID.TID 0000.0001)     ;
(PID.TID 0000.0001) omega =   /* Angular velocity ( rad/s ) */
(PID.TID 0000.0001)                 7.292123516990375E-05
(PID.TID 0000.0001)     ;
(PID.TID 0000.0001) f0 =   /* Reference coriolis parameter ( 1/s ) */
(PID.TID 0000.0001)                 0.000000000000000E+00
(PID.TID 0000.0001)     ;
(PID.TID 0000.0001) beta =   /* Beta ( 1/(m.s) ) */
(PID.TID 0000.0001)                 0.000000000000000E+00
(PID.TID 0000.0001)     ;
(PID.TID 0000.0001) fPrime =   /* Second coriolis parameter ( 1/s ) */
(PID.TID 0000.0001)                 0.000000000000000E+00
(PID.TID 0000.0001)     ;
(PID.TID 0000.0001) rigidLid =   /* Rigid lid on/off flag */
(PID.TID 0000.0001)                   F
(PID.TID 0000.0001)     ;
(PID.TID 0000.0001) implicitFreeSurface =   /* Implicit free surface on/off flag */
(PID.TID 0000.0001)                   T
(PID.TID 0000.0001)     ;
(PID.TID 0000.0001) freeSurfFac =   /* Implicit free surface factor */
(PID.TID 0000.0001)                 1.000000000000000E+00
(PID.TID 0000.0001)     ;
(PID.TID 0000.0001) implicSurfPress =  /* Surface Pressure implicit factor (0-1)*/
(PID.TID 0000.0001)                 1.000000000000000E+00
(PID.TID 0000.0001)     ;
(PID.TID 0000.0001) implicDiv2Dflow =  /* Barot. Flow Div. implicit factor (0-1)*/
(PID.TID 0000.0001)                 1.000000000000000E+00
(PID.TID 0000.0001)     ;
(PID.TID 0000.0001) uniformLin_PhiSurf = /* use uniform Bo_surf on/off flag*/
(PID.TID 0000.0001)                   T
(PID.TID 0000.0001)     ;
(PID.TID 0000.0001) uniformFreeSurfLev = /* free-surface level-index is uniform */
(PID.TID 0000.0001)                   T
(PID.TID 0000.0001)     ;
(PID.TID 0000.0001) hFacMin =   /* minimum partial cell factor (hFac) */
(PID.TID 0000.0001)                 1.000000000000000E+00
(PID.TID 0000.0001)     ;
(PID.TID 0000.0001) hFacMinDr = /* minimum partial cell thickness ( m) */
(PID.TID 0000.0001)                 1.000000000000000E+00
(PID.TID 0000.0001)     ;
(PID.TID 0000.0001) exactConserv =  /* Exact Volume Conservation on/off flag*/
(PID.TID 0000.0001)                   F
(PID.TID 0000.0001)     ;
(PID.TID 0000.0001) linFSConserveTr = /* Tracer correction for Lin Free Surface on/off flag*/
(PID.TID 0000.0001)                   F
(PID.TID 0000.0001)     ;
(PID.TID 0000.0001) nonlinFreeSurf = /* Non-linear Free Surf. options (-1,0,1,2,3)*/
(PID.TID 0000.0001)                       0
(PID.TID 0000.0001)      -1,0= Off ; 1,2,3= On, 2=+rescale gU,gV, 3=+update cg2d solv.
(PID.TID 0000.0001)     ;
(PID.TID 0000.0001) hFacInf =   /* lower threshold for hFac (nonlinFreeSurf only)*/
(PID.TID 0000.0001)                 2.000000000000000E-01
(PID.TID 0000.0001)     ;
(PID.TID 0000.0001) hFacSup =   /* upper threshold for hFac (nonlinFreeSurf only)*/
(PID.TID 0000.0001)                 2.000000000000000E+00
(PID.TID 0000.0001)     ;
(PID.TID 0000.0001) select_rStar = /* r* Vertical coord. options (=0 r coord.; >0 uses r*)*/
(PID.TID 0000.0001)                       0
(PID.TID 0000.0001)     ;
(PID.TID 0000.0001) useRealFreshWaterFlux = /* Real Fresh Water Flux on/off flag*/
(PID.TID 0000.0001)                   F
(PID.TID 0000.0001)     ;
(PID.TID 0000.0001) temp_EvPrRn = /* Temp. of Evap/Prec/R (UNSET=use local T)(oC)*/
(PID.TID 0000.0001)                 1.234567000000000E+05
(PID.TID 0000.0001)     ;
(PID.TID 0000.0001) salt_EvPrRn = /* Salin. of Evap/Prec/R (UNSET=use local S)(psu)*/
(PID.TID 0000.0001)                 0.000000000000000E+00
(PID.TID 0000.0001)     ;
(PID.TID 0000.0001) selectAddFluid = /* option for mass source/sink of fluid (=0: off) */
(PID.TID 0000.0001)                       0
(PID.TID 0000.0001)     ;
(PID.TID 0000.0001) temp_addMass = /* Temp. of addMass array (UNSET=use local T)(oC)*/
(PID.TID 0000.0001)                 1.234567000000000E+05
(PID.TID 0000.0001)     ;
(PID.TID 0000.0001) salt_addMass = /* Salin. of addMass array (UNSET=use local S)(psu)*/
(PID.TID 0000.0001)                 0.000000000000000E+00
(PID.TID 0000.0001)     ;
(PID.TID 0000.0001) convertFW2Salt = /* convert F.W. Flux to Salt Flux (-1=use local S)(psu)*/
(PID.TID 0000.0001)                -1.000000000000000E+00
(PID.TID 0000.0001)     ;
(PID.TID 0000.0001) use3Dsolver = /* use 3-D pressure solver on/off flag */
(PID.TID 0000.0001)                   F
(PID.TID 0000.0001)     ;
(PID.TID 0000.0001) nonHydrostatic =  /* Non-Hydrostatic on/off flag */
(PID.TID 0000.0001)                   F
(PID.TID 0000.0001)     ;
(PID.TID 0000.0001) nh_Am2 = /* Non-Hydrostatic terms scaling factor */
(PID.TID 0000.0001)                 1.000000000000000E+00
(PID.TID 0000.0001)     ;
(PID.TID 0000.0001) implicitNHPress = /* Non-Hyd Pressure implicit factor (0-1)*/
(PID.TID 0000.0001)                 1.000000000000000E+00
(PID.TID 0000.0001)     ;
(PID.TID 0000.0001) selectNHfreeSurf = /* Non-Hyd (free-)Surface option */
(PID.TID 0000.0001)                       0
(PID.TID 0000.0001)     ;
(PID.TID 0000.0001) quasiHydrostatic = /* Quasi-Hydrostatic on/off flag */
(PID.TID 0000.0001)                   F
(PID.TID 0000.0001)     ;
(PID.TID 0000.0001) calc_wVelocity = /* vertical velocity calculation on/off flag */
(PID.TID 0000.0001)                   F
(PID.TID 0000.0001)     ;
(PID.TID 0000.0001) momStepping =  /* Momentum equation on/off flag */
(PID.TID 0000.0001)                   F
(PID.TID 0000.0001)     ;
(PID.TID 0000.0001) vectorInvariantMomentum= /* Vector-Invariant Momentum on/off */
(PID.TID 0000.0001)                   F
(PID.TID 0000.0001)     ;
(PID.TID 0000.0001) momAdvection =  /* Momentum advection on/off flag */
(PID.TID 0000.0001)                   F
(PID.TID 0000.0001)     ;
(PID.TID 0000.0001) momViscosity =  /* Momentum viscosity on/off flag */
(PID.TID 0000.0001)                   F
(PID.TID 0000.0001)     ;
(PID.TID 0000.0001) momImplVertAdv= /* Momentum implicit vert. advection on/off*/
(PID.TID 0000.0001)                   F
(PID.TID 0000.0001)     ;
(PID.TID 0000.0001) implicitViscosity = /* Implicit viscosity on/off flag */
(PID.TID 0000.0001)                   F
(PID.TID 0000.0001)     ;
(PID.TID 0000.0001) metricTerms =  /* metric-Terms on/off flag */
(PID.TID 0000.0001)                   F
(PID.TID 0000.0001)     ;
(PID.TID 0000.0001) useNHMTerms = /* Non-Hydrostatic Metric-Terms on/off */
(PID.TID 0000.0001)                   F
(PID.TID 0000.0001)     ;
(PID.TID 0000.0001) selectCoriMap = /* Coriolis Map options (0,1,2,3)*/
(PID.TID 0000.0001)                       1
(PID.TID 0000.0001)     0= f-Plane ; 1= Beta-Plane ; 2= Spherical ; 3= read from file
(PID.TID 0000.0001)     ;
(PID.TID 0000.0001) use3dCoriolis = /* 3-D Coriolis on/off flag */
(PID.TID 0000.0001)                   F
(PID.TID 0000.0001)     ;
(PID.TID 0000.0001) useCoriolis =  /* Coriolis on/off flag */
(PID.TID 0000.0001)                   F
(PID.TID 0000.0001)     ;
(PID.TID 0000.0001) useCDscheme =  /* CD scheme on/off flag */
(PID.TID 0000.0001)                   F
(PID.TID 0000.0001)     ;
(PID.TID 0000.0001) useEnergyConservingCoriolis= /* Flx-Form Coriolis scheme flag */
(PID.TID 0000.0001)                   F
(PID.TID 0000.0001)     ;
(PID.TID 0000.0001) useJamartWetPoints= /* Coriolis WetPoints method flag */
(PID.TID 0000.0001)                   T
(PID.TID 0000.0001)     ;
(PID.TID 0000.0001) useJamartMomAdv= /* V.I Non-linear terms Jamart flag */
(PID.TID 0000.0001)                   F
(PID.TID 0000.0001)     ;
(PID.TID 0000.0001) useAbsVorticity= /* V.I Works with f+zeta in Coriolis */
(PID.TID 0000.0001)                   F
(PID.TID 0000.0001)     ;
(PID.TID 0000.0001) selectVortScheme= /* V.I Scheme selector for Vorticity-Term */
(PID.TID 0000.0001)               123456789
(PID.TID 0000.0001)    = 0 : enstrophy (Shallow-Water Eq.) conserving scheme by Sadourny, JAS 75
(PID.TID 0000.0001)    = 1 : same as 0 with modified hFac
(PID.TID 0000.0001)    = 2 : energy conserving scheme (used by Sadourny in JAS 75 paper)
(PID.TID 0000.0001)    = 3 : energy (general) and enstrophy (2D, nonDiv.) conserving scheme
(PID.TID 0000.0001)          from Sadourny (Burridge & Haseler, ECMWF Rep.4, 1977)
(PID.TID 0000.0001)     ;
(PID.TID 0000.0001) upwindVorticity= /* V.I Upwind bias vorticity flag */
(PID.TID 0000.0001)                   F
(PID.TID 0000.0001)     ;
(PID.TID 0000.0001) highOrderVorticity= /* V.I High order vort. advect. flag */
(PID.TID 0000.0001)                   F
(PID.TID 0000.0001)     ;
(PID.TID 0000.0001) upwindShear= /* V.I Upwind vertical Shear advection flag */
(PID.TID 0000.0001)                   F
(PID.TID 0000.0001)     ;
(PID.TID 0000.0001) selectKEscheme= /* V.I Kinetic Energy scheme selector */
(PID.TID 0000.0001)                       0
(PID.TID 0000.0001)     ;
(PID.TID 0000.0001) momForcing =  /* Momentum forcing on/off flag */
(PID.TID 0000.0001)                   F
(PID.TID 0000.0001)     ;
(PID.TID 0000.0001) momPressureForcing =  /* Momentum pressure term on/off flag */
(PID.TID 0000.0001)                   F
(PID.TID 0000.0001)     ;
(PID.TID 0000.0001) implicitIntGravWave= /* Implicit Internal Gravity Wave flag */
(PID.TID 0000.0001)                   F
(PID.TID 0000.0001)     ;
(PID.TID 0000.0001) staggerTimeStep =    /* Stagger time stepping on/off flag */
(PID.TID 0000.0001)                   T
(PID.TID 0000.0001)     ;
(PID.TID 0000.0001) doResetHFactors = /* reset thickness factors @ each time-step */
(PID.TID 0000.0001)                   F
(PID.TID 0000.0001)     ;
(PID.TID 0000.0001) multiDimAdvection =  /* enable/disable Multi-Dim Advection */
(PID.TID 0000.0001)                   T
(PID.TID 0000.0001)     ;
(PID.TID 0000.0001) useMultiDimAdvec =   /* Multi-Dim Advection is/is-not used */
(PID.TID 0000.0001)                   F
(PID.TID 0000.0001)     ;
(PID.TID 0000.0001) implicitDiffusion = /* Implicit Diffusion on/off flag */
(PID.TID 0000.0001)                   F
(PID.TID 0000.0001)     ;
(PID.TID 0000.0001) tempStepping =  /* Temperature equation on/off flag */
(PID.TID 0000.0001)                   T
(PID.TID 0000.0001)     ;
(PID.TID 0000.0001) tempAdvection = /* Temperature advection on/off flag */
(PID.TID 0000.0001)                   F
(PID.TID 0000.0001)     ;
(PID.TID 0000.0001) tempImplVertAdv = /* Temp. implicit vert. advection on/off */
(PID.TID 0000.0001)                   F
(PID.TID 0000.0001)     ;
(PID.TID 0000.0001) tempForcing  =  /* Temperature forcing on/off flag */
(PID.TID 0000.0001)                   T
(PID.TID 0000.0001)     ;
(PID.TID 0000.0001) doThetaClimRelax = /* apply SST relaxation on/off flag */
(PID.TID 0000.0001)                   T
(PID.TID 0000.0001)     ;
(PID.TID 0000.0001) tempIsActiveTr = /* Temp. is a dynamically Active Tracer */
(PID.TID 0000.0001)                   F
(PID.TID 0000.0001)     ;
(PID.TID 0000.0001) saltStepping =  /* Salinity equation on/off flag */
(PID.TID 0000.0001)                   F
(PID.TID 0000.0001)     ;
(PID.TID 0000.0001) saltAdvection = /* Salinity advection on/off flag */
(PID.TID 0000.0001)                   F
(PID.TID 0000.0001)     ;
(PID.TID 0000.0001) saltImplVertAdv = /* Sali. implicit vert. advection on/off */
(PID.TID 0000.0001)                   F
(PID.TID 0000.0001)     ;
(PID.TID 0000.0001) saltForcing  =  /* Salinity forcing on/off flag */
(PID.TID 0000.0001)                   F
(PID.TID 0000.0001)     ;
(PID.TID 0000.0001) doSaltClimRelax = /* apply SSS relaxation on/off flag */
(PID.TID 0000.0001)                   F
(PID.TID 0000.0001)     ;
(PID.TID 0000.0001) saltIsActiveTr = /* Salt  is a dynamically Active Tracer */
(PID.TID 0000.0001)                   F
(PID.TID 0000.0001)     ;
(PID.TID 0000.0001)  readBinaryPrec = /* Precision used for reading binary files */
(PID.TID 0000.0001)                      64
(PID.TID 0000.0001)     ;
(PID.TID 0000.0001) writeBinaryPrec = /* Precision used for writing binary files */
(PID.TID 0000.0001)                      64
(PID.TID 0000.0001)     ;
(PID.TID 0000.0001)  globalFiles = /* write "global" (=not per tile) files */
(PID.TID 0000.0001)                   F
(PID.TID 0000.0001)     ;
(PID.TID 0000.0001)  useSingleCpuIO = /* only master MPI process does I/O */
(PID.TID 0000.0001)                   T
(PID.TID 0000.0001)     ;
(PID.TID 0000.0001) /* debLev[*]  : level of debug & auxiliary message printing */
(PID.TID 0000.0001) debLevZero =  0 ; /* level of disabled aux. msg printing */
(PID.TID 0000.0001)    debLevA =  1 ; /* level of minimum  aux. msg printing */
(PID.TID 0000.0001)    debLevB =  2 ; /* level of low aux. print (report read-file opening)*/
(PID.TID 0000.0001)    debLevC =  3 ; /* level of moderate debug prt (most pkgs debug msg) */
(PID.TID 0000.0001)    debLevD =  4 ; /* level of enhanced debug prt (add DEBUG_STATS prt) */
(PID.TID 0000.0001)    debLevE =  5 ; /* level of extensive debug printing */
(PID.TID 0000.0001) debugLevel =  /* select debug printing level */
(PID.TID 0000.0001)                       2
(PID.TID 0000.0001)     ;
(PID.TID 0000.0001) //
(PID.TID 0000.0001) // Elliptic solver(s) paramters ( PARM02 in namelist )
(PID.TID 0000.0001) //
(PID.TID 0000.0001) cg2dMaxIters =   /* Upper limit on 2d con. grad iterations  */
(PID.TID 0000.0001)                     500
(PID.TID 0000.0001)     ;
(PID.TID 0000.0001) cg2dChkResFreq =   /* 2d con. grad convergence test frequency */
(PID.TID 0000.0001)                       1
(PID.TID 0000.0001)     ;
(PID.TID 0000.0001) cg2dTargetResidual =   /* 2d con. grad target residual  */
(PID.TID 0000.0001)                 1.000000000000000E-12
(PID.TID 0000.0001)     ;
(PID.TID 0000.0001) cg2dTargetResWunit =   /* CG2d target residual [W units] */
(PID.TID 0000.0001)                -1.000000000000000E+00
(PID.TID 0000.0001)     ;
(PID.TID 0000.0001) cg2dPreCondFreq =   /* Freq. for updating cg2d preconditioner */
(PID.TID 0000.0001)                       1
(PID.TID 0000.0001)     ;
(PID.TID 0000.0001) useSRCGSolver =  /* use single reduction CG solver(s) */
(PID.TID 0000.0001)                   F
(PID.TID 0000.0001)     ;
(PID.TID 0000.0001) printResidualFreq = /* Freq. for printing CG residual */
(PID.TID 0000.0001)                       0
(PID.TID 0000.0001)     ;
(PID.TID 0000.0001) //
(PID.TID 0000.0001) // Time stepping paramters ( PARM03 in namelist )
(PID.TID 0000.0001) //
(PID.TID 0000.0001) deltaTMom =   /* Momentum equation timestep ( s ) */
(PID.TID 0000.0001)                 1.800000000000000E+03
(PID.TID 0000.0001)     ;
(PID.TID 0000.0001) deltaTFreeSurf = /* FreeSurface equation timestep ( s ) */
(PID.TID 0000.0001)                 1.800000000000000E+03
(PID.TID 0000.0001)     ;
(PID.TID 0000.0001) dTtracerLev =  /* Tracer equation timestep ( s ) */
(PID.TID 0000.0001)                 1.800000000000000E+03       /* K =  1 */
(PID.TID 0000.0001)     ;
(PID.TID 0000.0001) deltaTClock  =   /* Model clock timestep ( s ) */
(PID.TID 0000.0001)                 1.800000000000000E+03
(PID.TID 0000.0001)     ;
(PID.TID 0000.0001) cAdjFreq =   /* Convective adjustment interval ( s ) */
(PID.TID 0000.0001)                 0.000000000000000E+00
(PID.TID 0000.0001)     ;
(PID.TID 0000.0001) momForcingOutAB = /* =1: take Momentum Forcing out of Adams-Bash. stepping */
(PID.TID 0000.0001)                       1
(PID.TID 0000.0001)     ;
(PID.TID 0000.0001) tracForcingOutAB = /* =1: take T,S,pTr Forcing out of Adams-Bash. stepping */
(PID.TID 0000.0001)                       1
(PID.TID 0000.0001)     ;
(PID.TID 0000.0001) momDissip_In_AB = /* put Dissipation Tendency in Adams-Bash. stepping */
(PID.TID 0000.0001)                   T
(PID.TID 0000.0001)     ;
(PID.TID 0000.0001) doAB_onGtGs = /* apply AB on Tendencies (rather than on T,S)*/
(PID.TID 0000.0001)                   T
(PID.TID 0000.0001)     ;
(PID.TID 0000.0001) abEps =   /* Adams-Bashforth-2 stabilizing weight */
(PID.TID 0000.0001)                 1.000000000000000E-01
(PID.TID 0000.0001)     ;
(PID.TID 0000.0001) pickupStrictlyMatch= /* stop if pickup do not strictly match */
(PID.TID 0000.0001)                   T
(PID.TID 0000.0001)     ;
(PID.TID 0000.0001) nIter0   =   /* Run starting timestep number */
(PID.TID 0000.0001)                       0
(PID.TID 0000.0001)     ;
(PID.TID 0000.0001) nTimeSteps = /* Number of timesteps */
(PID.TID 0000.0001)                      12
(PID.TID 0000.0001)     ;
(PID.TID 0000.0001) nEndIter =   /* Run ending timestep number */
(PID.TID 0000.0001)                      12
(PID.TID 0000.0001)     ;
(PID.TID 0000.0001) baseTime =   /* Model base time ( s ) */
(PID.TID 0000.0001)                 0.000000000000000E+00
(PID.TID 0000.0001)     ;
(PID.TID 0000.0001) startTime =  /* Run start time ( s ) */
(PID.TID 0000.0001)                 0.000000000000000E+00
(PID.TID 0000.0001)     ;
(PID.TID 0000.0001) endTime  =   /* Integration ending time ( s ) */
(PID.TID 0000.0001)                 2.160000000000000E+04
(PID.TID 0000.0001)     ;
(PID.TID 0000.0001) pChkPtFreq = /* Permanent restart/pickup file interval ( s ) */
(PID.TID 0000.0001)                 3.600000000000000E+06
(PID.TID 0000.0001)     ;
(PID.TID 0000.0001) chkPtFreq  = /* Rolling restart/pickup file interval ( s ) */
(PID.TID 0000.0001)                 0.000000000000000E+00
(PID.TID 0000.0001)     ;
(PID.TID 0000.0001) pickup_write_mdsio =   /* Model IO flag. */
(PID.TID 0000.0001)                   T
(PID.TID 0000.0001)     ;
(PID.TID 0000.0001) pickup_read_mdsio =   /* Model IO flag. */
(PID.TID 0000.0001)                   T
(PID.TID 0000.0001)     ;
(PID.TID 0000.0001) pickup_write_immed =   /* Model IO flag. */
(PID.TID 0000.0001)                   F
(PID.TID 0000.0001)     ;
(PID.TID 0000.0001) writePickupAtEnd =   /* Model IO flag. */
(PID.TID 0000.0001)                   T
(PID.TID 0000.0001)     ;
(PID.TID 0000.0001) dumpFreq =   /* Model state write out interval ( s ). */
(PID.TID 0000.0001)                 8.640000000000000E+05
(PID.TID 0000.0001)     ;
(PID.TID 0000.0001) dumpInitAndLast= /* write out Initial & Last iter. model state */
(PID.TID 0000.0001)                   T
(PID.TID 0000.0001)     ;
(PID.TID 0000.0001) snapshot_mdsio =   /* Model IO flag. */
(PID.TID 0000.0001)                   T
(PID.TID 0000.0001)     ;
(PID.TID 0000.0001) monitorFreq =   /* Monitor output interval ( s ). */
(PID.TID 0000.0001)                 1.000000000000000E+00
(PID.TID 0000.0001)     ;
(PID.TID 0000.0001) monitorSelect = /* select group of variables to monitor */
(PID.TID 0000.0001)                       2
(PID.TID 0000.0001)     ;
(PID.TID 0000.0001) monitor_stdio =   /* Model IO flag. */
(PID.TID 0000.0001)                   T
(PID.TID 0000.0001)     ;
(PID.TID 0000.0001) externForcingPeriod =   /* forcing period (s) */
(PID.TID 0000.0001)                 0.000000000000000E+00
(PID.TID 0000.0001)     ;
(PID.TID 0000.0001) externForcingCycle =   /* period of the cyle (s). */
(PID.TID 0000.0001)                 0.000000000000000E+00
(PID.TID 0000.0001)     ;
(PID.TID 0000.0001) tauThetaClimRelax =   /* relaxation time scale (s) */
(PID.TID 0000.0001)                 2.592000000000000E+06
(PID.TID 0000.0001)     ;
(PID.TID 0000.0001) tauSaltClimRelax =   /* relaxation time scale (s) */
(PID.TID 0000.0001)                 0.000000000000000E+00
(PID.TID 0000.0001)     ;
(PID.TID 0000.0001) latBandClimRelax =   /* max. Lat. where relaxation */
(PID.TID 0000.0001)                 6.300000000000000E+05
(PID.TID 0000.0001)     ;
(PID.TID 0000.0001) //
(PID.TID 0000.0001) // Gridding paramters ( PARM04 in namelist )
(PID.TID 0000.0001) //
(PID.TID 0000.0001) usingCartesianGrid = /* Cartesian coordinates flag ( True/False ) */
(PID.TID 0000.0001)                   T
(PID.TID 0000.0001)     ;
(PID.TID 0000.0001) usingCylindricalGrid = /* Cylindrical coordinates flag ( True/False ) */
(PID.TID 0000.0001)                   F
(PID.TID 0000.0001)     ;
(PID.TID 0000.0001) usingSphericalPolarGrid = /* Spherical coordinates flag ( True/False ) */
(PID.TID 0000.0001)                   F
(PID.TID 0000.0001)     ;
(PID.TID 0000.0001) usingCurvilinearGrid = /* Curvilinear coordinates flag ( True/False ) */
(PID.TID 0000.0001)                   F
(PID.TID 0000.0001)     ;
(PID.TID 0000.0001) selectSigmaCoord = /* Hybrid-Sigma Vert. Coordinate option */
(PID.TID 0000.0001)                       0
(PID.TID 0000.0001)     ;
(PID.TID 0000.0001) Ro_SeaLevel = /* r(1) ( units of r ==  m ) */
(PID.TID 0000.0001)                 0.000000000000000E+00
(PID.TID 0000.0001)     ;
(PID.TID 0000.0001) rSigmaBnd = /* r/sigma transition ( units of r ==  m ) */
(PID.TID 0000.0001)                 1.234567000000000E+05
(PID.TID 0000.0001)     ;
(PID.TID 0000.0001) rkSign =   /* index orientation relative to vertical coordinate */
(PID.TID 0000.0001)                -1.000000000000000E+00
(PID.TID 0000.0001)     ;
(PID.TID 0000.0001) gravitySign = /* gravity orientation relative to vertical coordinate */
(PID.TID 0000.0001)                -1.000000000000000E+00
(PID.TID 0000.0001)     ;
(PID.TID 0000.0001) mass2rUnit = /* convert mass per unit area [kg/m2] to r-units [m] */
(PID.TID 0000.0001)                 9.708737864077669E-04
(PID.TID 0000.0001)     ;
(PID.TID 0000.0001) rUnit2mass = /* convert r-units [m] to mass per unit area [kg/m2] */
(PID.TID 0000.0001)                 1.030000000000000E+03
(PID.TID 0000.0001)     ;
(PID.TID 0000.0001) drC =   /* C spacing ( units of r ) */
(PID.TID 0000.0001)                 5.000000000000000E+00       /* K =  1 */
(PID.TID 0000.0001)     ;
(PID.TID 0000.0001) drF =   /* W spacing ( units of r ) */
(PID.TID 0000.0001)                 1.000000000000000E+01       /* K =  1 */
(PID.TID 0000.0001)     ;
(PID.TID 0000.0001) delX = /* U spacing ( m - cartesian, degrees - spherical ) */
(PID.TID 0000.0001)    80 @  5.000000000000000E+03              /* I =  1: 80 */
(PID.TID 0000.0001)     ;
(PID.TID 0000.0001) delY = /* V spacing ( m - cartesian, degrees - spherical ) */
(PID.TID 0000.0001)    42 @  5.000000000000000E+03              /* J =  1: 42 */
(PID.TID 0000.0001)     ;
(PID.TID 0000.0001) xgOrigin = /* X-axis origin of West  edge (cartesian: m, lat-lon: deg) */
(PID.TID 0000.0001)                 0.000000000000000E+00
(PID.TID 0000.0001)     ;
(PID.TID 0000.0001) ygOrigin = /* Y-axis origin of South edge (cartesian: m, lat-lon: deg) */
(PID.TID 0000.0001)                -1.100000000000000E+05
(PID.TID 0000.0001)     ;
(PID.TID 0000.0001) rSphere =  /* Radius ( ignored - cartesian, m - spherical ) */
(PID.TID 0000.0001)                 6.370000000000000E+06
(PID.TID 0000.0001)     ;
(PID.TID 0000.0001) deepAtmosphere = /* Deep/Shallow Atmosphere flag (True/False) */
(PID.TID 0000.0001)                   F
(PID.TID 0000.0001)     ;
(PID.TID 0000.0001) xC =  /* xC(:,1,:,1) : P-point X coord ( deg. or m if cartesian) */
(PID.TID 0000.0001)                 2.500000000000000E+03,      /* I =  1 */
(PID.TID 0000.0001)                 7.500000000000000E+03,      /* I =  2 */
(PID.TID 0000.0001)                 1.250000000000000E+04,      /* I =  3 */
(PID.TID 0000.0001)      . . .
(PID.TID 0000.0001)                 8.750000000000000E+04,      /* I = 18 */
(PID.TID 0000.0001)                 9.250000000000000E+04,      /* I = 19 */
(PID.TID 0000.0001)                 9.750000000000000E+04,      /* I = 20 */
(PID.TID 0000.0001)                 1.025000000000000E+05,      /* I = 21 */
(PID.TID 0000.0001)                 1.075000000000000E+05,      /* I = 22 */
(PID.TID 0000.0001)                 1.125000000000000E+05,      /* I = 23 */
(PID.TID 0000.0001)      . . .
(PID.TID 0000.0001)                 1.875000000000000E+05,      /* I = 38 */
(PID.TID 0000.0001)                 1.925000000000000E+05,      /* I = 39 */
(PID.TID 0000.0001)                 1.975000000000000E+05,      /* I = 40 */
(PID.TID 0000.0001)                 2.025000000000000E+05,      /* I = 41 */
(PID.TID 0000.0001)                 2.075000000000000E+05,      /* I = 42 */
(PID.TID 0000.0001)                 2.125000000000000E+05,      /* I = 43 */
(PID.TID 0000.0001)      . . .
(PID.TID 0000.0001)                 2.875000000000000E+05,      /* I = 58 */
(PID.TID 0000.0001)                 2.925000000000000E+05,      /* I = 59 */
(PID.TID 0000.0001)                 2.975000000000000E+05,      /* I = 60 */
(PID.TID 0000.0001)                 3.025000000000000E+05,      /* I = 61 */
(PID.TID 0000.0001)                 3.075000000000000E+05,      /* I = 62 */
(PID.TID 0000.0001)                 3.125000000000000E+05,      /* I = 63 */
(PID.TID 0000.0001)      . . .
(PID.TID 0000.0001)                 3.875000000000000E+05,      /* I = 78 */
(PID.TID 0000.0001)                 3.925000000000000E+05,      /* I = 79 */
(PID.TID 0000.0001)                 3.975000000000000E+05       /* I = 80 */
(PID.TID 0000.0001)     ;
(PID.TID 0000.0001) yC =  /* yC(1,:,1,:) : P-point Y coord ( deg. or m if cartesian) */
(PID.TID 0000.0001)                -1.075000000000000E+05,      /* J =  1 */
(PID.TID 0000.0001)                -1.025000000000000E+05,      /* J =  2 */
(PID.TID 0000.0001)                -9.750000000000000E+04,      /* J =  3 */
(PID.TID 0000.0001)                -9.250000000000000E+04,      /* J =  4 */
(PID.TID 0000.0001)                -8.750000000000000E+04,      /* J =  5 */
(PID.TID 0000.0001)                -8.250000000000000E+04,      /* J =  6 */
(PID.TID 0000.0001)                -7.750000000000000E+04,      /* J =  7 */
(PID.TID 0000.0001)                -7.250000000000000E+04,      /* J =  8 */
(PID.TID 0000.0001)                -6.750000000000000E+04,      /* J =  9 */
(PID.TID 0000.0001)                -6.250000000000000E+04,      /* J = 10 */
(PID.TID 0000.0001)                -5.750000000000000E+04,      /* J = 11 */
(PID.TID 0000.0001)                -5.250000000000000E+04,      /* J = 12 */
(PID.TID 0000.0001)                -4.750000000000000E+04,      /* J = 13 */
(PID.TID 0000.0001)                -4.250000000000000E+04,      /* J = 14 */
(PID.TID 0000.0001)                -3.750000000000000E+04,      /* J = 15 */
(PID.TID 0000.0001)                -3.250000000000000E+04,      /* J = 16 */
(PID.TID 0000.0001)                -2.750000000000000E+04,      /* J = 17 */
(PID.TID 0000.0001)                -2.250000000000000E+04,      /* J = 18 */
(PID.TID 0000.0001)                -1.750000000000000E+04,      /* J = 19 */
(PID.TID 0000.0001)                -1.250000000000000E+04,      /* J = 20 */
(PID.TID 0000.0001)                -7.500000000000000E+03,      /* J = 21 */
(PID.TID 0000.0001)                -2.500000000000000E+03,      /* J = 22 */
(PID.TID 0000.0001)                 2.500000000000000E+03,      /* J = 23 */
(PID.TID 0000.0001)                 7.500000000000000E+03,      /* J = 24 */
(PID.TID 0000.0001)                 1.250000000000000E+04,      /* J = 25 */
(PID.TID 0000.0001)                 1.750000000000000E+04,      /* J = 26 */
(PID.TID 0000.0001)                 2.250000000000000E+04,      /* J = 27 */
(PID.TID 0000.0001)                 2.750000000000000E+04,      /* J = 28 */
(PID.TID 0000.0001)                 3.250000000000000E+04,      /* J = 29 */
(PID.TID 0000.0001)                 3.750000000000000E+04,      /* J = 30 */
(PID.TID 0000.0001)                 4.250000000000000E+04,      /* J = 31 */
(PID.TID 0000.0001)                 4.750000000000000E+04,      /* J = 32 */
(PID.TID 0000.0001)                 5.250000000000000E+04,      /* J = 33 */
(PID.TID 0000.0001)                 5.750000000000000E+04,      /* J = 34 */
(PID.TID 0000.0001)                 6.250000000000000E+04,      /* J = 35 */
(PID.TID 0000.0001)                 6.750000000000000E+04,      /* J = 36 */
(PID.TID 0000.0001)                 7.250000000000000E+04,      /* J = 37 */
(PID.TID 0000.0001)                 7.750000000000000E+04,      /* J = 38 */
(PID.TID 0000.0001)                 8.250000000000000E+04,      /* J = 39 */
(PID.TID 0000.0001)                 8.750000000000000E+04,      /* J = 40 */
(PID.TID 0000.0001)                 9.250000000000000E+04,      /* J = 41 */
(PID.TID 0000.0001)                 9.750000000000000E+04       /* J = 42 */
(PID.TID 0000.0001)     ;
(PID.TID 0000.0001) rcoord = /* P-point R coordinate (  units of r ) */
(PID.TID 0000.0001)                -5.000000000000000E+00       /* K =  1 */
(PID.TID 0000.0001)     ;
(PID.TID 0000.0001) rF =   /* W-Interf. R coordinate (  units of r ) */
(PID.TID 0000.0001)                 0.000000000000000E+00,      /* K =  1 */
(PID.TID 0000.0001)                -1.000000000000000E+01       /* K =  2 */
(PID.TID 0000.0001)     ;
(PID.TID 0000.0001) deepFacC = /* deep-model grid factor @ cell-Center (-) */
(PID.TID 0000.0001)                 1.000000000000000E+00       /* K =  1 */
(PID.TID 0000.0001)     ;
(PID.TID 0000.0001) deepFacF = /* deep-model grid factor @ W-Interface (-) */
(PID.TID 0000.0001)     2 @  1.000000000000000E+00              /* K =  1:  2 */
(PID.TID 0000.0001)     ;
(PID.TID 0000.0001) rVel2wUnit = /* convert units: rVel -> wSpeed (=1 if z-coord)*/
(PID.TID 0000.0001)     2 @  1.000000000000000E+00              /* K =  1:  2 */
(PID.TID 0000.0001)     ;
(PID.TID 0000.0001) wUnit2rVel = /* convert units: wSpeed -> rVel (=1 if z-coord)*/
(PID.TID 0000.0001)     2 @  1.000000000000000E+00              /* K =  1:  2 */
(PID.TID 0000.0001)     ;
(PID.TID 0000.0001) dBdrRef = /* Vertical grad. of reference buoyancy [(m/s/r)^2] */
(PID.TID 0000.0001)                 0.000000000000000E+00       /* K =  1 */
(PID.TID 0000.0001)     ;
(PID.TID 0000.0001) rotateGrid = /* use rotated grid ( True/False ) */
(PID.TID 0000.0001)                   F
(PID.TID 0000.0001)     ;
(PID.TID 0000.0001) phiEuler = /* Euler angle, rotation about original z-coordinate [rad] */
(PID.TID 0000.0001)                 0.000000000000000E+00
(PID.TID 0000.0001)     ;
(PID.TID 0000.0001) thetaEuler = /* Euler angle, rotation about new x-coordinate [rad] */
(PID.TID 0000.0001)                 0.000000000000000E+00
(PID.TID 0000.0001)     ;
(PID.TID 0000.0001) psiEuler = /* Euler angle, rotation about new z-coordinate [rad] */
(PID.TID 0000.0001)                 0.000000000000000E+00
(PID.TID 0000.0001)     ;
(PID.TID 0000.0001) dxF =  /* dxF(:,1,:,1) ( units: m ) */
(PID.TID 0000.0001)    80 @  5.000000000000000E+03              /* I =  1: 80 */
(PID.TID 0000.0001)     ;
(PID.TID 0000.0001) dxF =  /* dxF(1,:,1,:) ( units: m ) */
(PID.TID 0000.0001)    42 @  5.000000000000000E+03              /* J =  1: 42 */
(PID.TID 0000.0001)     ;
(PID.TID 0000.0001) dyF =  /* dyF(:,1,:,1) ( units: m ) */
(PID.TID 0000.0001)    80 @  5.000000000000000E+03              /* I =  1: 80 */
(PID.TID 0000.0001)     ;
(PID.TID 0000.0001) dyF =  /* dyF(1,:,1,:) ( units: m ) */
(PID.TID 0000.0001)    42 @  5.000000000000000E+03              /* J =  1: 42 */
(PID.TID 0000.0001)     ;
(PID.TID 0000.0001) dxG =  /* dxG(:,1,:,1) ( units: m ) */
(PID.TID 0000.0001)    80 @  5.000000000000000E+03              /* I =  1: 80 */
(PID.TID 0000.0001)     ;
(PID.TID 0000.0001) dxG =  /* dxG(1,:,1,:) ( units: m ) */
(PID.TID 0000.0001)    42 @  5.000000000000000E+03              /* J =  1: 42 */
(PID.TID 0000.0001)     ;
(PID.TID 0000.0001) dyG =  /* dyG(:,1,:,1) ( units: m ) */
(PID.TID 0000.0001)    80 @  5.000000000000000E+03              /* I =  1: 80 */
(PID.TID 0000.0001)     ;
(PID.TID 0000.0001) dyG =  /* dyG(1,:,1,:) ( units: m ) */
(PID.TID 0000.0001)    42 @  5.000000000000000E+03              /* J =  1: 42 */
(PID.TID 0000.0001)     ;
(PID.TID 0000.0001) dxC =  /* dxC(:,1,:,1) ( units: m ) */
(PID.TID 0000.0001)    80 @  5.000000000000000E+03              /* I =  1: 80 */
(PID.TID 0000.0001)     ;
(PID.TID 0000.0001) dxC =  /* dxC(1,:,1,:) ( units: m ) */
(PID.TID 0000.0001)    42 @  5.000000000000000E+03              /* J =  1: 42 */
(PID.TID 0000.0001)     ;
(PID.TID 0000.0001) dyC =  /* dyC(:,1,:,1) ( units: m ) */
(PID.TID 0000.0001)    80 @  5.000000000000000E+03              /* I =  1: 80 */
(PID.TID 0000.0001)     ;
(PID.TID 0000.0001) dyC =  /* dyC(1,:,1,:) ( units: m ) */
(PID.TID 0000.0001)    42 @  5.000000000000000E+03              /* J =  1: 42 */
(PID.TID 0000.0001)     ;
(PID.TID 0000.0001) dxV =  /* dxV(:,1,:,1) ( units: m ) */
(PID.TID 0000.0001)    80 @  5.000000000000000E+03              /* I =  1: 80 */
(PID.TID 0000.0001)     ;
(PID.TID 0000.0001) dxV =  /* dxV(1,:,1,:) ( units: m ) */
(PID.TID 0000.0001)    42 @  5.000000000000000E+03              /* J =  1: 42 */
(PID.TID 0000.0001)     ;
(PID.TID 0000.0001) dyU =  /* dyU(:,1,:,1) ( units: m ) */
(PID.TID 0000.0001)    80 @  5.000000000000000E+03              /* I =  1: 80 */
(PID.TID 0000.0001)     ;
(PID.TID 0000.0001) dyU =  /* dyU(1,:,1,:) ( units: m ) */
(PID.TID 0000.0001)    42 @  5.000000000000000E+03              /* J =  1: 42 */
(PID.TID 0000.0001)     ;
(PID.TID 0000.0001) rA  =  /* rA (:,1,:,1) ( units: m^2 ) */
(PID.TID 0000.0001)    80 @  2.500000000000000E+07              /* I =  1: 80 */
(PID.TID 0000.0001)     ;
(PID.TID 0000.0001) rA  =  /* rA (1,:,1,:) ( units: m^2 ) */
(PID.TID 0000.0001)    42 @  2.500000000000000E+07              /* J =  1: 42 */
(PID.TID 0000.0001)     ;
(PID.TID 0000.0001) rAw =  /* rAw(:,1,:,1) ( units: m^2 ) */
(PID.TID 0000.0001)    80 @  2.500000000000000E+07              /* I =  1: 80 */
(PID.TID 0000.0001)     ;
(PID.TID 0000.0001) rAw =  /* rAw(1,:,1,:) ( units: m^2 ) */
(PID.TID 0000.0001)    42 @  2.500000000000000E+07              /* J =  1: 42 */
(PID.TID 0000.0001)     ;
(PID.TID 0000.0001) rAs =  /* rAs(:,1,:,1) ( units: m^2 ) */
(PID.TID 0000.0001)    80 @  2.500000000000000E+07              /* I =  1: 80 */
(PID.TID 0000.0001)     ;
(PID.TID 0000.0001) rAs =  /* rAs(1,:,1,:) ( units: m^2 ) */
(PID.TID 0000.0001)    42 @  2.500000000000000E+07              /* J =  1: 42 */
(PID.TID 0000.0001)     ;
(PID.TID 0000.0001) globalArea = /* Integrated horizontal Area (m^2) */
(PID.TID 0000.0001)                 6.950000000000000E+10
(PID.TID 0000.0001)     ;
(PID.TID 0000.0001) // =======================================================
(PID.TID 0000.0001) // End of Model config. summary
(PID.TID 0000.0001) // =======================================================
(PID.TID 0000.0001) 
(PID.TID 0000.0001) == Packages configuration : Check & print summary ==
(PID.TID 0000.0001) 
(PID.TID 0000.0001) THSICE_CHECK: #define THSICE
(PID.TID 0000.0001) SEAICE_CHECK: #define ALLOW_SEAICE
(PID.TID 0000.0001) GAD_CHECK: #define ALLOW_GENERIC_ADVDIFF
(PID.TID 0000.0001) // =======================================================
(PID.TID 0000.0001) // Check Model config. (CONFIG_CHECK):
(PID.TID 0000.0001) // CONFIG_CHECK : Normal End
(PID.TID 0000.0001) // =======================================================
(PID.TID 0000.0001) 
(PID.TID 0000.0001)  MDS_READ_FIELD: opening global file: uVel_3c0.bin
(PID.TID 0000.0001)  MDS_READ_FIELD: opening global file: vVel_3c0.bin
(PID.TID 0000.0001) Start initial hydrostatic pressure computation
(PID.TID 0000.0001) Pressure is predetermined for buoyancyRelation OCEANIC
(PID.TID 0000.0001) 
(PID.TID 0000.0001)  write diagnostics summary to file ioUnit:      6
Iter.Nb:         0 ; Time(s):  0.0000000000000E+00
------------------------------------------------------------------------
2D/3D diagnostics: Number of lists:     2
------------------------------------------------------------------------
listId=    1 ; file name: iceDiag
 nFlds, nActive,       freq     &     phase        , nLev               
   11  |   11  |     86400.000000         0.000000 |   1
 levels:   1
 diag# | name   |   ipt  |  iMate | kLev|   count |   mate.C|           
   140 |SI_Fract|      1 |      0 |   1 |       0 |
   141 |SI_Thick|      2 |      1 |   1 |       0 |       0 |
    26 |THETA   |      3 |      0 |   1 |       0 |
   143 |SI_Tsrf |      4 |      1 |   1 |       0 |       0 |
   154 |SIflx2oc|      5 |      0 |   1 |       0 |
   155 |SIfrw2oc|      6 |      0 |   1 |       0 |
   156 |SIsaltFx|      7 |      0 |   1 |       0 |
   152 |SIflxAtm|      8 |      0 |   1 |       0 |
   153 |SIfrwAtm|      9 |      0 |   1 |       0 |
   183 |SIuice  |     10 |     11 |   1 |       0 |       0 |
   184 |SIvice  |     11 |     10 |   1 |       0 |       0 |
------------------------------------------------------------------------
listId=    2 ; file name: snapshot
 nFlds, nActive,       freq     &     phase        , nLev               
    7  |    7  |    -86400.000000         0.000000 |   1
 levels:   1
 diag# | name   |   ipt  |  iMate | kLev|   count |   mate.C|           
   183 |SIuice  |     12 |     13 |   1 |       0 |       0 |
   184 |SIvice  |     13 |     12 |   1 |       0 |       0 |
   177 |SIheff  |     14 |      0 |   1 |       0 |
   140 |SI_Fract|     15 |      0 |   1 |       0 |
   141 |SI_Thick|     16 |     15 |   1 |       0 |       0 |
   143 |SI_Tsrf |     17 |     15 |   1 |       0 |       0 |
    26 |THETA   |     18 |      0 |   1 |       0 |
------------------------------------------------------------------------
Global & Regional Statistics diagnostics: Number of lists:     1
------------------------------------------------------------------------
listId=   1 ; file name: iceStDiag
 nFlds, nActive,       freq     &     phase        |                    
   14  |   14  |      7200.000000      1800.000000 |
 Regions:   0
 diag# | name   |   ipt  |  iMate |    Volume   |   mate-Vol. |         
   140 |SI_Fract|      1 |      0 | 0.00000E+00 |
   141 |SI_Thick|      2 |      1 | 0.00000E+00 | 0.00000E+00 |
    26 |THETA   |      3 |      0 | 0.00000E+00 |
   143 |SI_Tsrf |      4 |      1 | 0.00000E+00 | 0.00000E+00 |
   144 |SI_Tice1|      5 |      1 | 0.00000E+00 | 0.00000E+00 |
   145 |SI_Tice2|      6 |      1 | 0.00000E+00 | 0.00000E+00 |
   154 |SIflx2oc|      7 |      0 | 0.00000E+00 |
   155 |SIfrw2oc|      8 |      0 | 0.00000E+00 |
   156 |SIsaltFx|      9 |      0 | 0.00000E+00 |
   152 |SIflxAtm|     10 |      0 | 0.00000E+00 |
   153 |SIfrwAtm|     11 |      0 | 0.00000E+00 |
   142 |SI_SnowH|     12 |      1 | 0.00000E+00 | 0.00000E+00 |
   183 |SIuice  |     13 |      0 | 0.00000E+00 |
   184 |SIvice  |     14 |      0 | 0.00000E+00 |
------------------------------------------------------------------------
(PID.TID 0000.0001)  MDS_READ_FIELD: opening global file: const100.bin
(PID.TID 0000.0001)  MDS_READ_FIELD: opening global file: const+20.bin
(PID.TID 0000.0001) // =======================================================
(PID.TID 0000.0001) // Model current state
(PID.TID 0000.0001) // =======================================================
(PID.TID 0000.0001) 
(PID.TID 0000.0001) // =======================================================
(PID.TID 0000.0001) // Begin MONITOR dynamic field statistics
(PID.TID 0000.0001) // =======================================================
(PID.TID 0000.0001) %MON time_tsnumber                =                     0
(PID.TID 0000.0001) %MON time_secondsf                =   0.0000000000000E+00
(PID.TID 0000.0001) %MON dynstat_eta_max              =   0.0000000000000E+00
(PID.TID 0000.0001) %MON dynstat_eta_min              =   0.0000000000000E+00
(PID.TID 0000.0001) %MON dynstat_eta_mean             =   0.0000000000000E+00
(PID.TID 0000.0001) %MON dynstat_eta_sd               =   0.0000000000000E+00
(PID.TID 0000.0001) %MON dynstat_eta_del2             =   0.0000000000000E+00
(PID.TID 0000.0001) %MON dynstat_uvel_max             =   5.4694595665363E-01
(PID.TID 0000.0001) %MON dynstat_uvel_min             =   8.1797628424127E-02
(PID.TID 0000.0001) %MON dynstat_uvel_mean            =   3.2603530929361E-01
(PID.TID 0000.0001) %MON dynstat_uvel_sd              =   8.4661197148990E-02
(PID.TID 0000.0001) %MON dynstat_uvel_del2            =   1.3392731599312E-04
(PID.TID 0000.0001) %MON dynstat_vvel_max             =   2.2780617104059E-01
(PID.TID 0000.0001) %MON dynstat_vvel_min             =  -1.4793000868950E-01
(PID.TID 0000.0001) %MON dynstat_vvel_mean            =  -3.2450632095700E-04
(PID.TID 0000.0001) %MON dynstat_vvel_sd              =   6.0970835295293E-02
(PID.TID 0000.0001) %MON dynstat_vvel_del2            =   8.1836652323282E-05
(PID.TID 0000.0001) %MON dynstat_wvel_max             =   1.6555698845343E-04
(PID.TID 0000.0001) %MON dynstat_wvel_min             =  -2.4393468746960E-04
(PID.TID 0000.0001) %MON dynstat_wvel_mean            =  -1.8006686469634E-21
(PID.TID 0000.0001) %MON dynstat_wvel_sd              =   1.8006622332191E-05
(PID.TID 0000.0001) %MON dynstat_wvel_del2            =   3.4047422448573E-07
(PID.TID 0000.0001) %MON dynstat_theta_max            =  -1.6200000000000E+00
(PID.TID 0000.0001) %MON dynstat_theta_min            =  -1.6200000000000E+00
(PID.TID 0000.0001) %MON dynstat_theta_mean           =  -1.6200000000000E+00
(PID.TID 0000.0001) %MON dynstat_theta_sd             =   0.0000000000000E+00
(PID.TID 0000.0001) %MON dynstat_theta_del2           =   0.0000000000000E+00
(PID.TID 0000.0001) %MON dynstat_salt_max             =   3.0000000000000E+01
(PID.TID 0000.0001) %MON dynstat_salt_min             =   3.0000000000000E+01
(PID.TID 0000.0001) %MON dynstat_salt_mean            =   3.0000000000000E+01
(PID.TID 0000.0001) %MON dynstat_salt_sd              =   0.0000000000000E+00
(PID.TID 0000.0001) %MON dynstat_salt_del2            =   0.0000000000000E+00
(PID.TID 0000.0001) %MON advcfl_uvel_max              =   1.9690054439531E-01
(PID.TID 0000.0001) %MON advcfl_vvel_max              =   8.2010221574612E-02
(PID.TID 0000.0001) %MON advcfl_wvel_max              =   8.7816487489057E-02
(PID.TID 0000.0001) %MON advcfl_W_hf_max              =   0.0000000000000E+00
(PID.TID 0000.0001) %MON pe_b_mean                    =   0.0000000000000E+00
(PID.TID 0000.0001) %MON ke_max                       =   1.4564487757410E-01
(PID.TID 0000.0001) %MON ke_mean                      =   5.8130401708830E-02
(PID.TID 0000.0001) %MON ke_vol                       =   6.9500000000000E+11
(PID.TID 0000.0001) %MON vort_r_min                   =  -1.4191202448594E-04
(PID.TID 0000.0001) %MON vort_r_max                   =   8.9657385579761E-05
(PID.TID 0000.0001) %MON vort_a_mean                  =  -6.5586096803907E-22
(PID.TID 0000.0001) %MON vort_a_sd                    =   1.5889649807104E-05
(PID.TID 0000.0001) %MON vort_p_mean                  =  -6.8228760045090E-22
(PID.TID 0000.0001) %MON vort_p_sd                    =   3.0669223294758E-05
(PID.TID 0000.0001) %MON surfExpan_theta_mean         =  -1.4394880171946E-21
(PID.TID 0000.0001) %MON surfExpan_salt_mean          =   1.6750406018264E-20
(PID.TID 0000.0001) // =======================================================
(PID.TID 0000.0001) // End MONITOR dynamic field statistics
(PID.TID 0000.0001) // =======================================================
(PID.TID 0000.0001) // =======================================================
(PID.TID 0000.0001) // Begin MONITOR SEAICE statistics
(PID.TID 0000.0001) // =======================================================
(PID.TID 0000.0001) %MON seaice_tsnumber              =                     0
(PID.TID 0000.0001) %MON seaice_time_sec              =   0.0000000000000E+00
(PID.TID 0000.0001) %MON seaice_uice_max              =   0.0000000000000E+00
(PID.TID 0000.0001) %MON seaice_uice_min              =   0.0000000000000E+00
(PID.TID 0000.0001) %MON seaice_uice_mean             =   0.0000000000000E+00
(PID.TID 0000.0001) %MON seaice_uice_sd               =   0.0000000000000E+00
(PID.TID 0000.0001) %MON seaice_uice_del2             =   0.0000000000000E+00
(PID.TID 0000.0001) %MON seaice_vice_max              =   0.0000000000000E+00
(PID.TID 0000.0001) %MON seaice_vice_min              =   0.0000000000000E+00
(PID.TID 0000.0001) %MON seaice_vice_mean             =   0.0000000000000E+00
(PID.TID 0000.0001) %MON seaice_vice_sd               =   0.0000000000000E+00
(PID.TID 0000.0001) %MON seaice_vice_del2             =   0.0000000000000E+00
(PID.TID 0000.0001) %MON seaice_area_max              =   0.0000000000000E+00
(PID.TID 0000.0001) %MON seaice_area_min              =   0.0000000000000E+00
(PID.TID 0000.0001) %MON seaice_area_mean             =   0.0000000000000E+00
(PID.TID 0000.0001) %MON seaice_area_sd               =   0.0000000000000E+00
(PID.TID 0000.0001) %MON seaice_area_del2             =   0.0000000000000E+00
(PID.TID 0000.0001) %MON seaice_heff_max              =   0.0000000000000E+00
(PID.TID 0000.0001) %MON seaice_heff_min              =   0.0000000000000E+00
(PID.TID 0000.0001) %MON seaice_heff_mean             =   0.0000000000000E+00
(PID.TID 0000.0001) %MON seaice_heff_sd               =   0.0000000000000E+00
(PID.TID 0000.0001) %MON seaice_heff_del2             =   0.0000000000000E+00
(PID.TID 0000.0001) %MON seaice_hsnow_max             =   0.0000000000000E+00
(PID.TID 0000.0001) %MON seaice_hsnow_min             =   0.0000000000000E+00
(PID.TID 0000.0001) %MON seaice_hsnow_mean            =   0.0000000000000E+00
(PID.TID 0000.0001) %MON seaice_hsnow_sd              =   0.0000000000000E+00
(PID.TID 0000.0001) %MON seaice_hsnow_del2            =   0.0000000000000E+00
(PID.TID 0000.0001) // =======================================================
(PID.TID 0000.0001) // End MONITOR SEAICE statistics
(PID.TID 0000.0001) // =======================================================
(PID.TID 0000.0001) // =======================================================
(PID.TID 0000.0001) // Begin MONITOR Therm.SeaIce statistics
(PID.TID 0000.0001) // =======================================================
(PID.TID 0000.0001) %MON thSI_time_sec                =   0.0000000000000E+00
(PID.TID 0000.0001) %MON thSI_Ice_Area_G              =   6.9500000000000E+10
(PID.TID 0000.0001) %MON thSI_Ice_Area_S              =   2.9500000000000E+10
(PID.TID 0000.0001) %MON thSI_Ice_Area_N              =   4.0000000000000E+10
(PID.TID 0000.0001) %MON thSI_IceH_ave_G              =   2.0000000000000E-01
(PID.TID 0000.0001) %MON thSI_IceH_ave_S              =   2.0000000000000E-01
(PID.TID 0000.0001) %MON thSI_IceH_ave_N              =   2.0000000000000E-01
(PID.TID 0000.0001) %MON thSI_IceH_max_S              =   2.0000000000000E-01
(PID.TID 0000.0001) %MON thSI_IceH_max_N              =   2.0000000000000E-01
(PID.TID 0000.0001) %MON thSI_SnwH_ave_G              =   0.0000000000000E+00
(PID.TID 0000.0001) %MON thSI_SnwH_ave_S              =   0.0000000000000E+00
(PID.TID 0000.0001) %MON thSI_SnwH_ave_N              =   0.0000000000000E+00
(PID.TID 0000.0001) %MON thSI_SnwH_max_S              =   0.0000000000000E+00
(PID.TID 0000.0001) %MON thSI_SnwH_max_N              =   0.0000000000000E+00
(PID.TID 0000.0001) %MON thSI_Tsrf_ave_G              =   0.0000000000000E+00
(PID.TID 0000.0001) %MON thSI_Tsrf_ave_S              =   0.0000000000000E+00
(PID.TID 0000.0001) %MON thSI_Tsrf_ave_N              =   0.0000000000000E+00
(PID.TID 0000.0001) %MON thSI_Tsrf_min_S              =   0.0000000000000E+00
(PID.TID 0000.0001) %MON thSI_Tsrf_min_N              =   0.0000000000000E+00
(PID.TID 0000.0001) %MON thSI_Tsrf_max_S              =   0.0000000000000E+00
(PID.TID 0000.0001) %MON thSI_Tsrf_max_N              =   0.0000000000000E+00
(PID.TID 0000.0001) %MON thSI_Tic1_ave_G              =   0.0000000000000E+00
(PID.TID 0000.0001) %MON thSI_Tic1_ave_S              =   0.0000000000000E+00
(PID.TID 0000.0001) %MON thSI_Tic1_ave_N              =   0.0000000000000E+00
(PID.TID 0000.0001) %MON thSI_Tic1_min_S              =   0.0000000000000E+00
(PID.TID 0000.0001) %MON thSI_Tic1_min_N              =   0.0000000000000E+00
(PID.TID 0000.0001) %MON thSI_Tic1_max_S              =   0.0000000000000E+00
(PID.TID 0000.0001) %MON thSI_Tic1_max_N              =   0.0000000000000E+00
(PID.TID 0000.0001) %MON thSI_Tic2_ave_G              =   0.0000000000000E+00
(PID.TID 0000.0001) %MON thSI_Tic2_ave_S              =   0.0000000000000E+00
(PID.TID 0000.0001) %MON thSI_Tic2_ave_N              =   0.0000000000000E+00
(PID.TID 0000.0001) %MON thSI_Tic2_min_S              =   0.0000000000000E+00
(PID.TID 0000.0001) %MON thSI_Tic2_min_N              =   0.0000000000000E+00
(PID.TID 0000.0001) %MON thSI_Tic2_max_S              =   0.0000000000000E+00
(PID.TID 0000.0001) %MON thSI_Tic2_max_N              =   0.0000000000000E+00
(PID.TID 0000.0001) %MON thSI_TotEnerg_G              =  -4.1574014390118E+18
(PID.TID 0000.0001) // =======================================================
(PID.TID 0000.0001) // End MONITOR Therm.SeaIce statistics
(PID.TID 0000.0001) // =======================================================
(PID.TID 0000.0001)  MDS_READ_FIELD: opening global file: tocn.bin
(PID.TID 0000.0001)  MDS_READ_FIELD: opening global file: tocn.bin
(PID.TID 0000.0001)  MDS_READ_FIELD: opening global file: windx.bin
(PID.TID 0000.0001)  MDS_READ_FIELD: opening global file: windx.bin
(PID.TID 0000.0001)  MDS_READ_FIELD: opening global file: tair_4x.bin
(PID.TID 0000.0001)  MDS_READ_FIELD: opening global file: tair_4x.bin
(PID.TID 0000.0001)  MDS_READ_FIELD: opening global file: qa70_4x.bin
(PID.TID 0000.0001)  MDS_READ_FIELD: opening global file: qa70_4x.bin
(PID.TID 0000.0001)  MDS_READ_FIELD: opening global file: const_00.bin
(PID.TID 0000.0001)  MDS_READ_FIELD: opening global file: const_00.bin
(PID.TID 0000.0001)  MDS_READ_FIELD: opening global file: dsw_100.bin
(PID.TID 0000.0001)  MDS_READ_FIELD: opening global file: dsw_100.bin
(PID.TID 0000.0001)  MDS_READ_FIELD: opening global file: dlw_250.bin
(PID.TID 0000.0001)  MDS_READ_FIELD: opening global file: dlw_250.bin
(PID.TID 0000.0001) // =======================================================
(PID.TID 0000.0001) // Begin MONITOR EXF statistics
(PID.TID 0000.0001) // =======================================================
(PID.TID 0000.0001) %MON exf_tsnumber                 =                     0
(PID.TID 0000.0001) %MON exf_time_sec                 =   0.0000000000000E+00
(PID.TID 0000.0001) %MON exf_ustress_max              =   1.5090582345178E-01
(PID.TID 0000.0001) %MON exf_ustress_min              =   1.2184383176727E-01
(PID.TID 0000.0001) %MON exf_ustress_mean             =   1.3639677841392E-01
(PID.TID 0000.0001) %MON exf_ustress_sd               =   1.0660482943078E-02
(PID.TID 0000.0001) %MON exf_ustress_del2             =   5.0007679327149E-06
(PID.TID 0000.0001) %MON exf_vstress_max              =   0.0000000000000E+00
(PID.TID 0000.0001) %MON exf_vstress_min              =   0.0000000000000E+00
(PID.TID 0000.0001) %MON exf_vstress_mean             =   0.0000000000000E+00
(PID.TID 0000.0001) %MON exf_vstress_sd               =   0.0000000000000E+00
(PID.TID 0000.0001) %MON exf_vstress_del2             =   0.0000000000000E+00
(PID.TID 0000.0001) %MON exf_hflux_max                =   6.5891206537299E+01
(PID.TID 0000.0001) %MON exf_hflux_min                =  -8.1404237426772E+01
(PID.TID 0000.0001) %MON exf_hflux_mean               =  -1.2615253864378E+01
(PID.TID 0000.0001) %MON exf_hflux_sd                 =   5.2562085706909E+01
(PID.TID 0000.0001) %MON exf_hflux_del2               =   8.4865194819604E-03
(PID.TID 0000.0001) %MON exf_sflux_max                =   2.4349220321116E-08
(PID.TID 0000.0001) %MON exf_sflux_min                =  -2.4559554123212E-09
(PID.TID 0000.0001) %MON exf_sflux_mean               =   1.1240274785629E-08
(PID.TID 0000.0001) %MON exf_sflux_sd                 =   9.7326718386416E-09
(PID.TID 0000.0001) %MON exf_sflux_del2               =   1.1879423322763E-12
(PID.TID 0000.0001) %MON exf_uwind_max                =   1.0000000000000E+01
(PID.TID 0000.0001) %MON exf_uwind_min                =   1.0000000000000E+01
(PID.TID 0000.0001) %MON exf_uwind_mean               =   1.0000000000000E+01
(PID.TID 0000.0001) %MON exf_uwind_sd                 =   0.0000000000000E+00
(PID.TID 0000.0001) %MON exf_uwind_del2               =   5.9106750809910E-02
(PID.TID 0000.0001) %MON exf_vwind_max                =   0.0000000000000E+00
(PID.TID 0000.0001) %MON exf_vwind_min                =   0.0000000000000E+00
(PID.TID 0000.0001) %MON exf_vwind_mean               =   0.0000000000000E+00
(PID.TID 0000.0001) %MON exf_vwind_sd                 =   0.0000000000000E+00
(PID.TID 0000.0001) %MON exf_vwind_del2               =   0.0000000000000E+00
(PID.TID 0000.0001) %MON exf_wspeed_max               =   1.0000000000000E+01
(PID.TID 0000.0001) %MON exf_wspeed_min               =   1.0000000000000E+01
(PID.TID 0000.0001) %MON exf_wspeed_mean              =   1.0000000000000E+01
(PID.TID 0000.0001) %MON exf_wspeed_sd                =   0.0000000000000E+00
(PID.TID 0000.0001) %MON exf_wspeed_del2              =   5.9106750809910E-02
(PID.TID 0000.0001) %MON exf_atemp_max                =   2.7714691614496E+02
(PID.TID 0000.0001) %MON exf_atemp_min                =   2.6915308385504E+02
(PID.TID 0000.0001) %MON exf_atemp_mean               =   2.7315000000000E+02
(PID.TID 0000.0001) %MON exf_atemp_sd                 =   2.9037718208063E+00
(PID.TID 0000.0001) %MON exf_atemp_del2               =   1.2859997507300E-02
(PID.TID 0000.0001) %MON exf_aqh_max                  =   3.7064806789606E-03
(PID.TID 0000.0001) %MON exf_aqh_min                  =   2.1441807824757E-03
(PID.TID 0000.0001) %MON exf_aqh_mean                 =   2.8804761552935E-03
(PID.TID 0000.0001) %MON exf_aqh_sd                   =   5.6734393616353E-04
(PID.TID 0000.0001) %MON exf_aqh_del2                 =   1.7078962742152E-05
(PID.TID 0000.0001) %MON exf_lwflux_max               =   5.6469966707287E+01
(PID.TID 0000.0001) %MON exf_lwflux_min               =   5.6469966707287E+01
(PID.TID 0000.0001) %MON exf_lwflux_mean              =   5.6469966707288E+01
(PID.TID 0000.0001) %MON exf_lwflux_sd                =   7.6028072726331E-13
(PID.TID 0000.0001) %MON exf_lwflux_del2              =   3.3377562504116E-01
(PID.TID 0000.0001) %MON exf_precip_max               =   0.0000000000000E+00
(PID.TID 0000.0001) %MON exf_precip_min               =   0.0000000000000E+00
(PID.TID 0000.0001) %MON exf_precip_mean              =   0.0000000000000E+00
(PID.TID 0000.0001) %MON exf_precip_sd                =   0.0000000000000E+00
(PID.TID 0000.0001) %MON exf_precip_del2              =   0.0000000000000E+00
(PID.TID 0000.0001) %MON exf_swflux_max               =  -9.0000000000000E+01
(PID.TID 0000.0001) %MON exf_swflux_min               =  -9.0000000000000E+01
(PID.TID 0000.0001) %MON exf_swflux_mean              =  -9.0000000000000E+01
(PID.TID 0000.0001) %MON exf_swflux_sd                =   0.0000000000000E+00
(PID.TID 0000.0001) %MON exf_swflux_del2              =   5.3196075728919E-01
(PID.TID 0000.0001) %MON exf_evap_max                 =   2.4349220321116E-08
(PID.TID 0000.0001) %MON exf_evap_min                 =  -2.4559554123212E-09
(PID.TID 0000.0001) %MON exf_evap_mean                =   1.1240274785629E-08
(PID.TID 0000.0001) %MON exf_evap_sd                  =   9.7326718386416E-09
(PID.TID 0000.0001) %MON exf_evap_del2                =   7.9927232086011E-11
(PID.TID 0000.0001) %MON exf_swdown_max               =   1.0000000000000E+02
(PID.TID 0000.0001) %MON exf_swdown_min               =   1.0000000000000E+02
(PID.TID 0000.0001) %MON exf_swdown_mean              =   1.0000000000000E+02
(PID.TID 0000.0001) %MON exf_swdown_sd                =   0.0000000000000E+00
(PID.TID 0000.0001) %MON exf_swdown_del2              =   5.9106750809910E-01
(PID.TID 0000.0001) %MON exf_lwdown_max               =   2.5000000000000E+02
(PID.TID 0000.0001) %MON exf_lwdown_min               =   2.5000000000000E+02
(PID.TID 0000.0001) %MON exf_lwdown_mean              =   2.5000000000000E+02
(PID.TID 0000.0001) %MON exf_lwdown_sd                =   0.0000000000000E+00
(PID.TID 0000.0001) %MON exf_lwdown_del2              =   1.4776687702478E+00
(PID.TID 0000.0001) %MON exf_climsst_max              =  -1.1201417233560E+00
(PID.TID 0000.0001) %MON exf_climsst_min              =  -1.9000000000000E+00
(PID.TID 0000.0001) %MON exf_climsst_mean             =  -1.4559671038679E+00
(PID.TID 0000.0001) %MON exf_climsst_sd               =   2.5919303995890E-01
(PID.TID 0000.0001) %MON exf_climsst_del2             =   9.7004486819731E-05
(PID.TID 0000.0001) // =======================================================
(PID.TID 0000.0001) // End MONITOR EXF statistics
(PID.TID 0000.0001) // =======================================================
 SEAICE_LSR: Residual Initial ipass,Uice,Vice=    1  9.08284668E-01  1.15496362E-01
 SEAICE_LSR: Residual FrDrift U_fd,V_fd=  4.35410841E+03  5.28176728E+02
 SEAICE_LSR (ipass=   1) iters,dU,Resid=  1500  1.91822422E-06  2.99243717E-02
 SEAICE_LSR (ipass=   1) iters,dV,Resid=   664  9.57862045E-13  1.06865674E-08
 SEAICE_LSR: Residual Initial ipass,Uice,Vice=    2  8.65517349E-01  1.23075564E-01
 SEAICE_LSR: Residual FrDrift U_fd,V_fd=  1.52315684E+02  1.44666471E+01
 SEAICE_LSR (ipass=   2) iters,dU,Resid=  1500  5.93857556E-05  2.14671182E-01
 SEAICE_LSR (ipass=   2) iters,dV,Resid=   512  9.91619981E-13  4.28255054E-10
(PID.TID 0000.0001) // =======================================================
(PID.TID 0000.0001) // Begin MONITOR dynamic field statistics
(PID.TID 0000.0001) // =======================================================
(PID.TID 0000.0001) %MON time_tsnumber                =                     1
(PID.TID 0000.0001) %MON time_secondsf                =   1.8000000000000E+03
(PID.TID 0000.0001) %MON dynstat_eta_max              =   0.0000000000000E+00
(PID.TID 0000.0001) %MON dynstat_eta_min              =   0.0000000000000E+00
(PID.TID 0000.0001) %MON dynstat_eta_mean             =   0.0000000000000E+00
(PID.TID 0000.0001) %MON dynstat_eta_sd               =   0.0000000000000E+00
(PID.TID 0000.0001) %MON dynstat_eta_del2             =   0.0000000000000E+00
(PID.TID 0000.0001) %MON dynstat_uvel_max             =   5.4694595665363E-01
(PID.TID 0000.0001) %MON dynstat_uvel_min             =   8.1797628424127E-02
(PID.TID 0000.0001) %MON dynstat_uvel_mean            =   3.2603530929361E-01
(PID.TID 0000.0001) %MON dynstat_uvel_sd              =   8.4661197148990E-02
(PID.TID 0000.0001) %MON dynstat_uvel_del2            =   1.3392731599312E-04
(PID.TID 0000.0001) %MON dynstat_vvel_max             =   2.2780617104059E-01
(PID.TID 0000.0001) %MON dynstat_vvel_min             =  -1.4793000868950E-01
(PID.TID 0000.0001) %MON dynstat_vvel_mean            =  -3.2450632095700E-04
(PID.TID 0000.0001) %MON dynstat_vvel_sd              =   6.0970835295293E-02
(PID.TID 0000.0001) %MON dynstat_vvel_del2            =   8.1836652323282E-05
(PID.TID 0000.0001) %MON dynstat_wvel_max             =   1.6555698845343E-04
(PID.TID 0000.0001) %MON dynstat_wvel_min             =  -2.4393468746960E-04
(PID.TID 0000.0001) %MON dynstat_wvel_mean            =  -1.8006686469634E-21
(PID.TID 0000.0001) %MON dynstat_wvel_sd              =   1.8006622332191E-05
(PID.TID 0000.0001) %MON dynstat_wvel_del2            =   3.4047422448573E-07
(PID.TID 0000.0001) %MON dynstat_theta_max            =  -1.6196012572825E+00
(PID.TID 0000.0001) %MON dynstat_theta_min            =  -1.6196228118519E+00
(PID.TID 0000.0001) %MON dynstat_theta_mean           =  -1.6196108476407E+00
(PID.TID 0000.0001) %MON dynstat_theta_sd             =   1.8119067646875E-06
(PID.TID 0000.0001) %MON dynstat_theta_del2           =   1.2605396858948E-08
(PID.TID 0000.0001) %MON dynstat_salt_max             =   3.0000000000000E+01
(PID.TID 0000.0001) %MON dynstat_salt_min             =   3.0000000000000E+01
(PID.TID 0000.0001) %MON dynstat_salt_mean            =   3.0000000000000E+01
(PID.TID 0000.0001) %MON dynstat_salt_sd              =   0.0000000000000E+00
(PID.TID 0000.0001) %MON dynstat_salt_del2            =   0.0000000000000E+00
(PID.TID 0000.0001) %MON advcfl_uvel_max              =   1.9690054439531E-01
(PID.TID 0000.0001) %MON advcfl_vvel_max              =   8.2010221574612E-02
(PID.TID 0000.0001) %MON advcfl_wvel_max              =   8.7816487489057E-02
(PID.TID 0000.0001) %MON advcfl_W_hf_max              =   0.0000000000000E+00
(PID.TID 0000.0001) %MON pe_b_mean                    =   0.0000000000000E+00
(PID.TID 0000.0001) %MON ke_max                       =   1.4564487757410E-01
(PID.TID 0000.0001) %MON ke_mean                      =   5.8130401708830E-02
(PID.TID 0000.0001) %MON ke_vol                       =   6.9500000000000E+11
(PID.TID 0000.0001) %MON vort_r_min                   =  -1.4191202448594E-04
(PID.TID 0000.0001) %MON vort_r_max                   =   8.9657385579761E-05
(PID.TID 0000.0001) %MON vort_a_mean                  =  -6.5586096803907E-22
(PID.TID 0000.0001) %MON vort_a_sd                    =   1.5889649807104E-05
(PID.TID 0000.0001) %MON vort_p_mean                  =  -6.8228760045090E-22
(PID.TID 0000.0001) %MON vort_p_sd                    =   3.0669223294758E-05
(PID.TID 0000.0001) %MON surfExpan_theta_mean         =   1.0705246424432E-11
(PID.TID 0000.0001) %MON surfExpan_salt_mean          =   1.6750406018264E-20
(PID.TID 0000.0001) // =======================================================
(PID.TID 0000.0001) // End MONITOR dynamic field statistics
(PID.TID 0000.0001) // =======================================================
(PID.TID 0000.0001) // =======================================================
(PID.TID 0000.0001) // Begin MONITOR Therm.SeaIce statistics
(PID.TID 0000.0001) // =======================================================
(PID.TID 0000.0001) %MON thSI_time_sec                =   1.8000000000000E+03
(PID.TID 0000.0001) %MON thSI_Ice_Area_G              =   6.9479570399623E+10
(PID.TID 0000.0001) %MON thSI_Ice_Area_S              =   2.9481241711626E+10
(PID.TID 0000.0001) %MON thSI_Ice_Area_N              =   3.9998328687997E+10
(PID.TID 0000.0001) %MON thSI_IceH_ave_G              =   2.0005185191167E-01
(PID.TID 0000.0001) %MON thSI_IceH_ave_S              =   2.0012089186360E-01
(PID.TID 0000.0001) %MON thSI_IceH_ave_N              =   2.0000096519772E-01
(PID.TID 0000.0001) %MON thSI_IceH_max_S              =   2.0524093069377E-01
(PID.TID 0000.0001) %MON thSI_IceH_max_N              =   2.0031129599028E-01
(PID.TID 0000.0001) %MON thSI_SnwH_ave_G              =   0.0000000000000E+00
(PID.TID 0000.0001) %MON thSI_SnwH_ave_S              =   0.0000000000000E+00
(PID.TID 0000.0001) %MON thSI_SnwH_ave_N              =   0.0000000000000E+00
(PID.TID 0000.0001) %MON thSI_SnwH_max_S              =   0.0000000000000E+00
(PID.TID 0000.0001) %MON thSI_SnwH_max_N              =   0.0000000000000E+00
(PID.TID 0000.0001) %MON thSI_Tsrf_ave_G              =  -2.1060353407672E+00
(PID.TID 0000.0001) %MON thSI_Tsrf_ave_S              =  -2.1037571774406E+00
(PID.TID 0000.0001) %MON thSI_Tsrf_ave_N              =  -2.1077144880190E+00
(PID.TID 0000.0001) %MON thSI_Tsrf_min_S              =  -3.6805798424775E+00
(PID.TID 0000.0001) %MON thSI_Tsrf_min_N              =  -3.6807186415872E+00
(PID.TID 0000.0001) %MON thSI_Tsrf_max_S              =  -4.8594677989510E-01
(PID.TID 0000.0001) %MON thSI_Tsrf_max_N              =  -4.8726633741796E-01
(PID.TID 0000.0001) %MON thSI_Tic1_ave_G              =  -1.7313893776404E+00
(PID.TID 0000.0001) %MON thSI_Tic1_ave_S              =  -1.7314637444526E+00
(PID.TID 0000.0001) %MON thSI_Tic1_ave_N              =  -1.7313345318335E+00
(PID.TID 0000.0001) %MON thSI_Tic1_min_S              =  -1.8720116256869E+00
(PID.TID 0000.0001) %MON thSI_Tic1_min_N              =  -1.8720116256869E+00
(PID.TID 0000.0001) %MON thSI_Tic1_max_S              =  -1.5938333263917E+00
(PID.TID 0000.0001) %MON thSI_Tic1_max_N              =  -1.5937877370026E+00
(PID.TID 0000.0001) %MON thSI_Tic2_ave_G              =  -1.6843012252918E+00
(PID.TID 0000.0001) %MON thSI_Tic2_ave_S              =  -1.6843234062768E+00
(PID.TID 0000.0001) %MON thSI_Tic2_ave_N              =  -1.6842848667310E+00
(PID.TID 0000.0001) %MON thSI_Tic2_min_S              =  -1.7014671239558E+00
(PID.TID 0000.0001) %MON thSI_Tic2_min_N              =  -1.7014671239557E+00
(PID.TID 0000.0001) %MON thSI_Tic2_max_S              =  -1.2740344225381E+00
(PID.TID 0000.0001) %MON thSI_Tic2_max_N              =  -1.6674843024136E+00
(PID.TID 0000.0001) %MON thSI_TotEnerg_G              =  -4.1584469793531E+18
(PID.TID 0000.0001) // =======================================================
(PID.TID 0000.0001) // End MONITOR Therm.SeaIce statistics
(PID.TID 0000.0001) // =======================================================
 Computing Diagnostic #    183  SIuice       Counter:       1   Parms: UU      M1      
           Vector  Mate for  SIuice       Diagnostic #    184  SIvice   exists 
 Computing Diagnostic #    184  SIvice       Counter:       1   Parms: VV      M1      
           Vector  Mate for  SIvice       Diagnostic #    183  SIuice   exists 
 Computing Diagnostic #    177  SIheff       Counter:       1   Parms: SM      M1      
 Computing Diagnostic #    140  SI_Fract     Counter:       1   Parms: SM P    M1      
 Computing Diagnostic #    141  SI_Thick     Counter:       1   Parms: SM PC   M1      
       use Counter Mate for  SI_Thick     Diagnostic #    140  SI_Fract
 Computing Diagnostic #    143  SI_Tsrf      Counter:       1   Parms: SM  C   M1      
       use Counter Mate for  SI_Tsrf      Diagnostic #    140  SI_Fract
 Computing Diagnostic #     26  THETA        Counter:       1   Parms: SMR     MR      
 Compute Stats, Diag. #    140  SI_Fract  vol(   0 ): 6.950E+10  Parms: SM P    M1      
 Compute Stats, Diag. #    141  SI_Thick  vol(   0 ): 6.950E+10  Parms: SM PC   M1      
    use Counter Mate  #    140  SI_Fract  vol(   0 ): 6.950E+10 integral 6.950E+10
 Compute Stats, Diag. #     26  THETA     vol(   0 ): 6.950E+11  Parms: SMR     MR      
 Compute Stats, Diag. #    143  SI_Tsrf   vol(   0 ): 6.950E+10  Parms: SM  C   M1      
    use Counter Mate  #    140  SI_Fract  vol(   0 ): 6.950E+10 integral 6.950E+10
 Compute Stats, Diag. #    144  SI_Tice1  vol(   0 ): 6.950E+10  Parms: SM  C   M1      
    use Counter Mate  #    140  SI_Fract  vol(   0 ): 6.950E+10 integral 6.950E+10
 Compute Stats, Diag. #    145  SI_Tice2  vol(   0 ): 6.950E+10  Parms: SM  C   M1      
    use Counter Mate  #    140  SI_Fract  vol(   0 ): 6.950E+10 integral 6.950E+10
 Compute Stats, Diag. #    154  SIflx2oc  vol(   0 ): 6.950E+10  Parms: SM      M1      
 Compute Stats, Diag. #    155  SIfrw2oc  vol(   0 ): 6.950E+10  Parms: SM      M1      
 Compute Stats, Diag. #    156  SIsaltFx  vol(   0 ): 6.950E+10  Parms: SM      M1      
 Compute Stats, Diag. #    152  SIflxAtm  vol(   0 ): 6.950E+10  Parms: SM      M1      
 Compute Stats, Diag. #    153  SIfrwAtm  vol(   0 ): 6.950E+10  Parms: SM      M1      
 Compute Stats, Diag. #    142  SI_SnowH  vol(   0 ): 6.950E+10  Parms: SM PC   M1      
    use Counter Mate  #    140  SI_Fract  vol(   0 ): 6.950E+10 integral 6.950E+10
 Compute Stats, Diag. #    183  SIuice    vol(   0 ): 6.900E+10  Parms: UU      M1      
 Compute Stats, Diag. #    184  SIvice    vol(   0 ): 6.750E+10  Parms: VV      M1      
(PID.TID 0000.0001) // =======================================================
(PID.TID 0000.0001) // Begin MONITOR dynamic field statistics
(PID.TID 0000.0001) // =======================================================
(PID.TID 0000.0001) %MON time_tsnumber                =                     2
(PID.TID 0000.0001) %MON time_secondsf                =   3.6000000000000E+03
(PID.TID 0000.0001) %MON dynstat_eta_max              =   0.0000000000000E+00
(PID.TID 0000.0001) %MON dynstat_eta_min              =   0.0000000000000E+00
(PID.TID 0000.0001) %MON dynstat_eta_mean             =   0.0000000000000E+00
(PID.TID 0000.0001) %MON dynstat_eta_sd               =   0.0000000000000E+00
(PID.TID 0000.0001) %MON dynstat_eta_del2             =   0.0000000000000E+00
(PID.TID 0000.0001) %MON dynstat_uvel_max             =   5.4694595665363E-01
(PID.TID 0000.0001) %MON dynstat_uvel_min             =   8.1797628424127E-02
(PID.TID 0000.0001) %MON dynstat_uvel_mean            =   3.2603530929361E-01
(PID.TID 0000.0001) %MON dynstat_uvel_sd              =   8.4661197148990E-02
(PID.TID 0000.0001) %MON dynstat_uvel_del2            =   1.3392731599312E-04
(PID.TID 0000.0001) %MON dynstat_vvel_max             =   2.2780617104059E-01
(PID.TID 0000.0001) %MON dynstat_vvel_min             =  -1.4793000868950E-01
(PID.TID 0000.0001) %MON dynstat_vvel_mean            =  -3.2450632095700E-04
(PID.TID 0000.0001) %MON dynstat_vvel_sd              =   6.0970835295293E-02
(PID.TID 0000.0001) %MON dynstat_vvel_del2            =   8.1836652323282E-05
(PID.TID 0000.0001) %MON dynstat_wvel_max             =   1.6555698845343E-04
(PID.TID 0000.0001) %MON dynstat_wvel_min             =  -2.4393468746960E-04
(PID.TID 0000.0001) %MON dynstat_wvel_mean            =  -1.8006686469634E-21
(PID.TID 0000.0001) %MON dynstat_wvel_sd              =   1.8006622332191E-05
(PID.TID 0000.0001) %MON dynstat_wvel_del2            =   3.4047422448573E-07
(PID.TID 0000.0001) %MON dynstat_theta_max            =  -1.6192153287482E+00
(PID.TID 0000.0001) %MON dynstat_theta_min            =  -1.6195132588379E+00
(PID.TID 0000.0001) %MON dynstat_theta_mean           =  -1.6192359234515E+00
(PID.TID 0000.0001) %MON dynstat_theta_sd             =   1.8191053937102E-05
(PID.TID 0000.0001) %MON dynstat_theta_del2           =   1.7344806216588E-07
(PID.TID 0000.0001) %MON dynstat_salt_max             =   3.0000000000000E+01
(PID.TID 0000.0001) %MON dynstat_salt_min             =   3.0000000000000E+01
(PID.TID 0000.0001) %MON dynstat_salt_mean            =   3.0000000000000E+01
(PID.TID 0000.0001) %MON dynstat_salt_sd              =   0.0000000000000E+00
(PID.TID 0000.0001) %MON dynstat_salt_del2            =   0.0000000000000E+00
(PID.TID 0000.0001) %MON advcfl_uvel_max              =   1.9690054439531E-01
(PID.TID 0000.0001) %MON advcfl_vvel_max              =   8.2010221574612E-02
(PID.TID 0000.0001) %MON advcfl_wvel_max              =   8.7816487489057E-02
(PID.TID 0000.0001) %MON advcfl_W_hf_max              =   0.0000000000000E+00
(PID.TID 0000.0001) %MON pe_b_mean                    =   0.0000000000000E+00
(PID.TID 0000.0001) %MON ke_max                       =   1.4564487757410E-01
(PID.TID 0000.0001) %MON ke_mean                      =   5.8130401708830E-02
(PID.TID 0000.0001) %MON ke_vol                       =   6.9500000000000E+11
(PID.TID 0000.0001) %MON vort_r_min                   =  -1.4191202448594E-04
(PID.TID 0000.0001) %MON vort_r_max                   =   8.9657385579761E-05
(PID.TID 0000.0001) %MON vort_a_mean                  =  -6.5586096803907E-22
(PID.TID 0000.0001) %MON vort_a_sd                    =   1.5889649807104E-05
(PID.TID 0000.0001) %MON vort_p_mean                  =  -6.8228760045090E-22
(PID.TID 0000.0001) %MON vort_p_sd                    =   3.0669223294758E-05
(PID.TID 0000.0001) %MON surfExpan_theta_mean         =   1.6236836348033E-10
(PID.TID 0000.0001) %MON surfExpan_salt_mean          =   1.6750406018264E-20
(PID.TID 0000.0001) // =======================================================
(PID.TID 0000.0001) // End MONITOR dynamic field statistics
(PID.TID 0000.0001) // =======================================================
(PID.TID 0000.0001) // =======================================================
(PID.TID 0000.0001) // Begin MONITOR Therm.SeaIce statistics
(PID.TID 0000.0001) // =======================================================
(PID.TID 0000.0001) %MON thSI_time_sec                =   3.6000000000000E+03
(PID.TID 0000.0001) %MON thSI_Ice_Area_G              =   6.9365511061370E+10
(PID.TID 0000.0001) %MON thSI_Ice_Area_S              =   2.9371984205459E+10
(PID.TID 0000.0001) %MON thSI_Ice_Area_N              =   3.9993526855911E+10
(PID.TID 0000.0001) %MON thSI_IceH_ave_G              =   2.0037131046470E-01
(PID.TID 0000.0001) %MON thSI_IceH_ave_S              =   2.0085334138888E-01
(PID.TID 0000.0001) %MON thSI_IceH_ave_N              =   2.0001729805808E-01
(PID.TID 0000.0001) %MON thSI_IceH_max_S              =   2.2747788944408E-01
(PID.TID 0000.0001) %MON thSI_IceH_max_N              =   2.0058301427745E-01
(PID.TID 0000.0001) %MON thSI_SnwH_ave_G              =   0.0000000000000E+00
(PID.TID 0000.0001) %MON thSI_SnwH_ave_S              =   0.0000000000000E+00
(PID.TID 0000.0001) %MON thSI_SnwH_ave_N              =   0.0000000000000E+00
(PID.TID 0000.0001) %MON thSI_SnwH_max_S              =   0.0000000000000E+00
(PID.TID 0000.0001) %MON thSI_SnwH_max_N              =   0.0000000000000E+00
(PID.TID 0000.0001) %MON thSI_Tsrf_ave_G              =  -2.1227185514302E+00
(PID.TID 0000.0001) %MON thSI_Tsrf_ave_S              =  -2.1173794858333E+00
(PID.TID 0000.0001) %MON thSI_Tsrf_ave_N              =  -2.1266396597373E+00
(PID.TID 0000.0001) %MON thSI_Tsrf_min_S              =  -3.7726641121678E+00
(PID.TID 0000.0001) %MON thSI_Tsrf_min_N              =  -3.7731072651098E+00
(PID.TID 0000.0001) %MON thSI_Tsrf_max_S              =  -4.1629642356140E-01
(PID.TID 0000.0001) %MON thSI_Tsrf_max_N              =  -4.4399601869364E-01
(PID.TID 0000.0001) %MON thSI_Tic1_ave_G              =  -1.7670310848743E+00
(PID.TID 0000.0001) %MON thSI_Tic1_ave_S              =  -1.7674038426216E+00
(PID.TID 0000.0001) %MON thSI_Tic1_ave_N              =  -1.7667561804276E+00
(PID.TID 0000.0001) %MON thSI_Tic1_min_S              =  -2.0491658321427E+00
(PID.TID 0000.0001) %MON thSI_Tic1_min_N              =  -2.0491658316329E+00
(PID.TID 0000.0001) %MON thSI_Tic1_max_S              =  -1.5039060015770E+00
(PID.TID 0000.0001) %MON thSI_Tic1_max_N              =  -1.5036667845608E+00
(PID.TID 0000.0001) %MON thSI_Tic2_ave_G              =  -1.6787555276837E+00
(PID.TID 0000.0001) %MON thSI_Tic2_ave_S              =  -1.6789070027947E+00
(PID.TID 0000.0001) %MON thSI_Tic2_ave_N              =  -1.6786438165740E+00
(PID.TID 0000.0001) %MON thSI_Tic2_min_S              =  -1.7240266571417E+00
(PID.TID 0000.0001) %MON thSI_Tic2_min_N              =  -1.7240266570298E+00
(PID.TID 0000.0001) %MON thSI_Tic2_max_S              =  -9.9157790696120E-01
(PID.TID 0000.0001) %MON thSI_Tic2_max_N              =  -1.6358728871486E+00
(PID.TID 0000.0001) %MON thSI_TotEnerg_G              =  -4.1593731253859E+18
(PID.TID 0000.0001) // =======================================================
(PID.TID 0000.0001) // End MONITOR Therm.SeaIce statistics
(PID.TID 0000.0001) // =======================================================
(PID.TID 0000.0001) // =======================================================
(PID.TID 0000.0001) // Begin MONITOR dynamic field statistics
(PID.TID 0000.0001) // =======================================================
(PID.TID 0000.0001) %MON time_tsnumber                =                     3
(PID.TID 0000.0001) %MON time_secondsf                =   5.4000000000000E+03
(PID.TID 0000.0001) %MON dynstat_eta_max              =   0.0000000000000E+00
(PID.TID 0000.0001) %MON dynstat_eta_min              =   0.0000000000000E+00
(PID.TID 0000.0001) %MON dynstat_eta_mean             =   0.0000000000000E+00
(PID.TID 0000.0001) %MON dynstat_eta_sd               =   0.0000000000000E+00
(PID.TID 0000.0001) %MON dynstat_eta_del2             =   0.0000000000000E+00
(PID.TID 0000.0001) %MON dynstat_uvel_max             =   5.4694595665363E-01
(PID.TID 0000.0001) %MON dynstat_uvel_min             =   8.1797628424127E-02
(PID.TID 0000.0001) %MON dynstat_uvel_mean            =   3.2603530929361E-01
(PID.TID 0000.0001) %MON dynstat_uvel_sd              =   8.4661197148990E-02
(PID.TID 0000.0001) %MON dynstat_uvel_del2            =   1.3392731599312E-04
(PID.TID 0000.0001) %MON dynstat_vvel_max             =   2.2780617104059E-01
(PID.TID 0000.0001) %MON dynstat_vvel_min             =  -1.4793000868950E-01
(PID.TID 0000.0001) %MON dynstat_vvel_mean            =  -3.2450632095700E-04
(PID.TID 0000.0001) %MON dynstat_vvel_sd              =   6.0970835295293E-02
(PID.TID 0000.0001) %MON dynstat_vvel_del2            =   8.1836652323282E-05
(PID.TID 0000.0001) %MON dynstat_wvel_max             =   1.6555698845343E-04
(PID.TID 0000.0001) %MON dynstat_wvel_min             =  -2.4393468746960E-04
(PID.TID 0000.0001) %MON dynstat_wvel_mean            =  -1.8006686469634E-21
(PID.TID 0000.0001) %MON dynstat_wvel_sd              =   1.8006622332191E-05
(PID.TID 0000.0001) %MON dynstat_wvel_del2            =   3.4047422448573E-07
(PID.TID 0000.0001) %MON dynstat_theta_max            =  -1.6188460008935E+00
(PID.TID 0000.0001) %MON dynstat_theta_min            =  -1.6196204310937E+00
(PID.TID 0000.0001) %MON dynstat_theta_mean           =  -1.6188722076889E+00
(PID.TID 0000.0001) %MON dynstat_theta_sd             =   4.6863952191904E-05
(PID.TID 0000.0001) %MON dynstat_theta_del2           =   6.2453808809510E-07
(PID.TID 0000.0001) %MON dynstat_salt_max             =   3.0000000000000E+01
(PID.TID 0000.0001) %MON dynstat_salt_min             =   3.0000000000000E+01
(PID.TID 0000.0001) %MON dynstat_salt_mean            =   3.0000000000000E+01
(PID.TID 0000.0001) %MON dynstat_salt_sd              =   0.0000000000000E+00
(PID.TID 0000.0001) %MON dynstat_salt_del2            =   0.0000000000000E+00
(PID.TID 0000.0001) %MON advcfl_uvel_max              =   1.9690054439531E-01
(PID.TID 0000.0001) %MON advcfl_vvel_max              =   8.2010221574612E-02
(PID.TID 0000.0001) %MON advcfl_wvel_max              =   8.7816487489057E-02
(PID.TID 0000.0001) %MON advcfl_W_hf_max              =   0.0000000000000E+00
(PID.TID 0000.0001) %MON pe_b_mean                    =   0.0000000000000E+00
(PID.TID 0000.0001) %MON ke_max                       =   1.4564487757410E-01
(PID.TID 0000.0001) %MON ke_mean                      =   5.8130401708830E-02
(PID.TID 0000.0001) %MON ke_vol                       =   6.9500000000000E+11
(PID.TID 0000.0001) %MON vort_r_min                   =  -1.4191202448594E-04
(PID.TID 0000.0001) %MON vort_r_max                   =   8.9657385579761E-05
(PID.TID 0000.0001) %MON vort_a_mean                  =  -6.5586096803907E-22
(PID.TID 0000.0001) %MON vort_a_sd                    =   1.5889649807104E-05
(PID.TID 0000.0001) %MON vort_p_mean                  =  -6.8228760045090E-22
(PID.TID 0000.0001) %MON vort_p_sd                    =   3.0669223294758E-05
(PID.TID 0000.0001) %MON surfExpan_theta_mean         =   4.6361475563738E-10
(PID.TID 0000.0001) %MON surfExpan_salt_mean          =   1.6750406018264E-20
(PID.TID 0000.0001) // =======================================================
(PID.TID 0000.0001) // End MONITOR dynamic field statistics
(PID.TID 0000.0001) // =======================================================
(PID.TID 0000.0001) // =======================================================
(PID.TID 0000.0001) // Begin MONITOR Therm.SeaIce statistics
(PID.TID 0000.0001) // =======================================================
(PID.TID 0000.0001) %MON thSI_time_sec                =   5.4000000000000E+03
(PID.TID 0000.0001) %MON thSI_Ice_Area_G              =   6.9299673590870E+10
(PID.TID 0000.0001) %MON thSI_Ice_Area_S              =   2.9310423802152E+10
(PID.TID 0000.0001) %MON thSI_Ice_Area_N              =   3.9989249788719E+10
(PID.TID 0000.0001) %MON thSI_IceH_ave_G              =   2.0055131701288E-01
(PID.TID 0000.0001) %MON thSI_IceH_ave_S              =   2.0126921634916E-01
(PID.TID 0000.0001) %MON thSI_IceH_ave_N              =   2.0002512725176E-01
(PID.TID 0000.0001) %MON thSI_IceH_max_S              =   2.5215727601388E-01
(PID.TID 0000.0001) %MON thSI_IceH_max_N              =   2.0070094155672E-01
(PID.TID 0000.0001) %MON thSI_SnwH_ave_G              =   0.0000000000000E+00
(PID.TID 0000.0001) %MON thSI_SnwH_ave_S              =   0.0000000000000E+00
(PID.TID 0000.0001) %MON thSI_SnwH_ave_N              =   0.0000000000000E+00
(PID.TID 0000.0001) %MON thSI_SnwH_max_S              =   0.0000000000000E+00
(PID.TID 0000.0001) %MON thSI_SnwH_max_N              =   0.0000000000000E+00
(PID.TID 0000.0001) %MON thSI_Tsrf_ave_G              =  -2.1420007657214E+00
(PID.TID 0000.0001) %MON thSI_Tsrf_ave_S              =  -2.1355212215971E+00
(PID.TID 0000.0001) %MON thSI_Tsrf_ave_N              =  -2.1467499967105E+00
(PID.TID 0000.0001) %MON thSI_Tsrf_min_S              =  -3.8654084648930E+00
(PID.TID 0000.0001) %MON thSI_Tsrf_min_N              =  -3.8662910228796E+00
(PID.TID 0000.0001) %MON thSI_Tsrf_max_S              =  -3.4983072628110E-01
(PID.TID 0000.0001) %MON thSI_Tsrf_max_N              =  -4.0556995291213E-01
(PID.TID 0000.0001) %MON thSI_Tic1_ave_G              =  -1.8051417907265E+00
(PID.TID 0000.0001) %MON thSI_Tic1_ave_S              =  -1.8061071900141E+00
(PID.TID 0000.0001) %MON thSI_Tic1_ave_N              =  -1.8044297929857E+00
(PID.TID 0000.0001) %MON thSI_Tic1_min_S              =  -2.2273435696232E+00
(PID.TID 0000.0001) %MON thSI_Tic1_min_N              =  -2.2273358898172E+00
(PID.TID 0000.0001) %MON thSI_Tic1_max_S              =  -1.4263422910011E+00
(PID.TID 0000.0001) %MON thSI_Tic1_max_N              =  -1.4259655657634E+00
(PID.TID 0000.0001) %MON thSI_Tic2_ave_G              =  -1.6799165410802E+00
(PID.TID 0000.0001) %MON thSI_Tic2_ave_S              =  -1.6802753514163E+00
(PID.TID 0000.0001) %MON thSI_Tic2_ave_N              =  -1.6796519125976E+00
(PID.TID 0000.0001) %MON thSI_Tic2_min_S              =  -1.7600800060414E+00
(PID.TID 0000.0001) %MON thSI_Tic2_min_N              =  -1.7600797941838E+00
(PID.TID 0000.0001) %MON thSI_Tic2_max_S              =  -8.0345206461562E-01
(PID.TID 0000.0001) %MON thSI_Tic2_max_N              =  -1.6063563108395E+00
(PID.TID 0000.0001) %MON thSI_TotEnerg_G              =  -4.1601787704257E+18
(PID.TID 0000.0001) // =======================================================
(PID.TID 0000.0001) // End MONITOR Therm.SeaIce statistics
(PID.TID 0000.0001) // =======================================================
(PID.TID 0000.0001) // =======================================================
(PID.TID 0000.0001) // Begin MONITOR dynamic field statistics
(PID.TID 0000.0001) // =======================================================
(PID.TID 0000.0001) %MON time_tsnumber                =                     4
(PID.TID 0000.0001) %MON time_secondsf                =   7.2000000000000E+03
(PID.TID 0000.0001) %MON dynstat_eta_max              =   0.0000000000000E+00
(PID.TID 0000.0001) %MON dynstat_eta_min              =   0.0000000000000E+00
(PID.TID 0000.0001) %MON dynstat_eta_mean             =   0.0000000000000E+00
(PID.TID 0000.0001) %MON dynstat_eta_sd               =   0.0000000000000E+00
(PID.TID 0000.0001) %MON dynstat_eta_del2             =   0.0000000000000E+00
(PID.TID 0000.0001) %MON dynstat_uvel_max             =   5.4694595665363E-01
(PID.TID 0000.0001) %MON dynstat_uvel_min             =   8.1797628424127E-02
(PID.TID 0000.0001) %MON dynstat_uvel_mean            =   3.2603530929361E-01
(PID.TID 0000.0001) %MON dynstat_uvel_sd              =   8.4661197148990E-02
(PID.TID 0000.0001) %MON dynstat_uvel_del2            =   1.3392731599312E-04
(PID.TID 0000.0001) %MON dynstat_vvel_max             =   2.2780617104059E-01
(PID.TID 0000.0001) %MON dynstat_vvel_min             =  -1.4793000868950E-01
(PID.TID 0000.0001) %MON dynstat_vvel_mean            =  -3.2450632095700E-04
(PID.TID 0000.0001) %MON dynstat_vvel_sd              =   6.0970835295293E-02
(PID.TID 0000.0001) %MON dynstat_vvel_del2            =   8.1836652323282E-05
(PID.TID 0000.0001) %MON dynstat_wvel_max             =   1.6555698845343E-04
(PID.TID 0000.0001) %MON dynstat_wvel_min             =  -2.4393468746960E-04
(PID.TID 0000.0001) %MON dynstat_wvel_mean            =  -1.8006686469634E-21
(PID.TID 0000.0001) %MON dynstat_wvel_sd              =   1.8006622332191E-05
(PID.TID 0000.0001) %MON dynstat_wvel_del2            =   3.4047422448573E-07
(PID.TID 0000.0001) %MON dynstat_theta_max            =  -1.6184782080041E+00
(PID.TID 0000.0001) %MON dynstat_theta_min            =  -1.6199419888058E+00
(PID.TID 0000.0001) %MON dynstat_theta_mean           =  -1.6185197705971E+00
(PID.TID 0000.0001) %MON dynstat_theta_sd             =   8.8748774141742E-05
(PID.TID 0000.0001) %MON dynstat_theta_del2           =   1.2855528777971E-06
(PID.TID 0000.0001) %MON dynstat_salt_max             =   3.0000000000000E+01
(PID.TID 0000.0001) %MON dynstat_salt_min             =   3.0000000000000E+01
(PID.TID 0000.0001) %MON dynstat_salt_mean            =   3.0000000000000E+01
(PID.TID 0000.0001) %MON dynstat_salt_sd              =   0.0000000000000E+00
(PID.TID 0000.0001) %MON dynstat_salt_del2            =   0.0000000000000E+00
(PID.TID 0000.0001) %MON advcfl_uvel_max              =   1.9690054439531E-01
(PID.TID 0000.0001) %MON advcfl_vvel_max              =   8.2010221574612E-02
(PID.TID 0000.0001) %MON advcfl_wvel_max              =   8.7816487489057E-02
(PID.TID 0000.0001) %MON advcfl_W_hf_max              =   0.0000000000000E+00
(PID.TID 0000.0001) %MON pe_b_mean                    =   0.0000000000000E+00
(PID.TID 0000.0001) %MON ke_max                       =   1.4564487757410E-01
(PID.TID 0000.0001) %MON ke_mean                      =   5.8130401708830E-02
(PID.TID 0000.0001) %MON ke_vol                       =   6.9500000000000E+11
(PID.TID 0000.0001) %MON vort_r_min                   =  -1.4191202448594E-04
(PID.TID 0000.0001) %MON vort_r_max                   =   8.9657385579761E-05
(PID.TID 0000.0001) %MON vort_a_mean                  =  -6.5586096803907E-22
(PID.TID 0000.0001) %MON vort_a_sd                    =   1.5889649807104E-05
(PID.TID 0000.0001) %MON vort_p_mean                  =  -6.8228760045090E-22
(PID.TID 0000.0001) %MON vort_p_sd                    =   3.0669223294758E-05
(PID.TID 0000.0001) %MON surfExpan_theta_mean         =   8.9781451727693E-10
(PID.TID 0000.0001) %MON surfExpan_salt_mean          =   1.6750406018264E-20
(PID.TID 0000.0001) // =======================================================
(PID.TID 0000.0001) // End MONITOR dynamic field statistics
(PID.TID 0000.0001) // =======================================================
(PID.TID 0000.0001) // =======================================================
(PID.TID 0000.0001) // Begin MONITOR Therm.SeaIce statistics
(PID.TID 0000.0001) // =======================================================
(PID.TID 0000.0001) %MON thSI_time_sec                =   7.2000000000000E+03
(PID.TID 0000.0001) %MON thSI_Ice_Area_G              =   6.9233616841659E+10
(PID.TID 0000.0001) %MON thSI_Ice_Area_S              =   2.9248570256187E+10
(PID.TID 0000.0001) %MON thSI_Ice_Area_N              =   3.9985046585472E+10
(PID.TID 0000.0001) %MON thSI_IceH_ave_G              =   2.0073252664204E-01
(PID.TID 0000.0001) %MON thSI_IceH_ave_S              =   2.0168877472122E-01
(PID.TID 0000.0001) %MON thSI_IceH_ave_N              =   2.0003304292214E-01
(PID.TID 0000.0001) %MON thSI_IceH_max_S              =   2.7611277598896E-01
(PID.TID 0000.0001) %MON thSI_IceH_max_N              =   2.0087762321398E-01
(PID.TID 0000.0001) %MON thSI_SnwH_ave_G              =   0.0000000000000E+00
(PID.TID 0000.0001) %MON thSI_SnwH_ave_S              =   0.0000000000000E+00
(PID.TID 0000.0001) %MON thSI_SnwH_ave_N              =   0.0000000000000E+00
(PID.TID 0000.0001) %MON thSI_SnwH_max_S              =   0.0000000000000E+00
(PID.TID 0000.0001) %MON thSI_SnwH_max_N              =   0.0000000000000E+00
(PID.TID 0000.0001) %MON thSI_Tsrf_ave_G              =  -2.1617423555981E+00
(PID.TID 0000.0001) %MON thSI_Tsrf_ave_S              =  -2.1543009340297E+00
(PID.TID 0000.0001) %MON thSI_Tsrf_ave_N              =  -2.1671856640380E+00
(PID.TID 0000.0001) %MON thSI_Tsrf_min_S              =  -3.9566670731960E+00
(PID.TID 0000.0001) %MON thSI_Tsrf_min_N              =  -3.9577558478110E+00
(PID.TID 0000.0001) %MON thSI_Tsrf_max_S              =  -2.8967288561904E-01
(PID.TID 0000.0001) %MON thSI_Tsrf_max_N              =  -3.7203765078720E-01
(PID.TID 0000.0001) %MON thSI_Tic1_ave_G              =  -1.8441119570840E+00
(PID.TID 0000.0001) %MON thSI_Tic1_ave_S              =  -1.8457931728516E+00
(PID.TID 0000.0001) %MON thSI_Tic1_ave_N              =  -1.8428719890887E+00
(PID.TID 0000.0001) %MON thSI_Tic1_min_S              =  -2.4023668972295E+00
(PID.TID 0000.0001) %MON thSI_Tic1_min_N              =  -2.4023431126623E+00
(PID.TID 0000.0001) %MON thSI_Tic1_max_S              =  -1.3587434579173E+00
(PID.TID 0000.0001) %MON thSI_Tic1_max_N              =  -1.3582537944787E+00
(PID.TID 0000.0001) %MON thSI_Tic2_ave_G              =  -1.6854247134067E+00
(PID.TID 0000.0001) %MON thSI_Tic2_ave_S              =  -1.6860534346911E+00
(PID.TID 0000.0001) %MON thSI_Tic2_ave_N              =  -1.6849610047707E+00
(PID.TID 0000.0001) %MON thSI_Tic2_min_S              =  -1.8042881804827E+00
(PID.TID 0000.0001) %MON thSI_Tic2_min_N              =  -1.8042871514114E+00
(PID.TID 0000.0001) %MON thSI_Tic2_max_S              =  -6.7513567691282E-01
(PID.TID 0000.0001) %MON thSI_Tic2_max_N              =  -1.5793841655094E+00
(PID.TID 0000.0001) %MON thSI_TotEnerg_G              =  -4.1608620874315E+18
(PID.TID 0000.0001) // =======================================================
(PID.TID 0000.0001) // End MONITOR Therm.SeaIce statistics
(PID.TID 0000.0001) // =======================================================
(PID.TID 0000.0001) // =======================================================
(PID.TID 0000.0001) // Begin MONITOR dynamic field statistics
(PID.TID 0000.0001) // =======================================================
(PID.TID 0000.0001) %MON time_tsnumber                =                     5
(PID.TID 0000.0001) %MON time_secondsf                =   9.0000000000000E+03
(PID.TID 0000.0001) %MON dynstat_eta_max              =   0.0000000000000E+00
(PID.TID 0000.0001) %MON dynstat_eta_min              =   0.0000000000000E+00
(PID.TID 0000.0001) %MON dynstat_eta_mean             =   0.0000000000000E+00
(PID.TID 0000.0001) %MON dynstat_eta_sd               =   0.0000000000000E+00
(PID.TID 0000.0001) %MON dynstat_eta_del2             =   0.0000000000000E+00
(PID.TID 0000.0001) %MON dynstat_uvel_max             =   5.4694595665363E-01
(PID.TID 0000.0001) %MON dynstat_uvel_min             =   8.1797628424127E-02
(PID.TID 0000.0001) %MON dynstat_uvel_mean            =   3.2603530929361E-01
(PID.TID 0000.0001) %MON dynstat_uvel_sd              =   8.4661197148990E-02
(PID.TID 0000.0001) %MON dynstat_uvel_del2            =   1.3392731599312E-04
(PID.TID 0000.0001) %MON dynstat_vvel_max             =   2.2780617104059E-01
(PID.TID 0000.0001) %MON dynstat_vvel_min             =  -1.4793000868950E-01
(PID.TID 0000.0001) %MON dynstat_vvel_mean            =  -3.2450632095700E-04
(PID.TID 0000.0001) %MON dynstat_vvel_sd              =   6.0970835295293E-02
(PID.TID 0000.0001) %MON dynstat_vvel_del2            =   8.1836652323282E-05
(PID.TID 0000.0001) %MON dynstat_wvel_max             =   1.6555698845343E-04
(PID.TID 0000.0001) %MON dynstat_wvel_min             =  -2.4393468746960E-04
(PID.TID 0000.0001) %MON dynstat_wvel_mean            =  -1.8006686469634E-21
(PID.TID 0000.0001) %MON dynstat_wvel_sd              =   1.8006622332191E-05
(PID.TID 0000.0001) %MON dynstat_wvel_del2            =   3.4047422448573E-07
(PID.TID 0000.0001) %MON dynstat_theta_max            =  -1.6181172757566E+00
(PID.TID 0000.0001) %MON dynstat_theta_min            =  -1.6204504610686E+00
(PID.TID 0000.0001) %MON dynstat_theta_mean           =  -1.6181782885355E+00
(PID.TID 0000.0001) %MON dynstat_theta_sd             =   1.4310213214002E-04
(PID.TID 0000.0001) %MON dynstat_theta_del2           =   2.0833506181766E-06
(PID.TID 0000.0001) %MON dynstat_salt_max             =   3.0000000000000E+01
(PID.TID 0000.0001) %MON dynstat_salt_min             =   3.0000000000000E+01
(PID.TID 0000.0001) %MON dynstat_salt_mean            =   3.0000000000000E+01
(PID.TID 0000.0001) %MON dynstat_salt_sd              =   0.0000000000000E+00
(PID.TID 0000.0001) %MON dynstat_salt_del2            =   0.0000000000000E+00
(PID.TID 0000.0001) %MON advcfl_uvel_max              =   1.9690054439531E-01
(PID.TID 0000.0001) %MON advcfl_vvel_max              =   8.2010221574612E-02
(PID.TID 0000.0001) %MON advcfl_wvel_max              =   8.7816487489057E-02
(PID.TID 0000.0001) %MON advcfl_W_hf_max              =   0.0000000000000E+00
(PID.TID 0000.0001) %MON pe_b_mean                    =   0.0000000000000E+00
(PID.TID 0000.0001) %MON ke_max                       =   1.4564487757410E-01
(PID.TID 0000.0001) %MON ke_mean                      =   5.8130401708830E-02
(PID.TID 0000.0001) %MON ke_vol                       =   6.9500000000000E+11
(PID.TID 0000.0001) %MON vort_r_min                   =  -1.4191202448594E-04
(PID.TID 0000.0001) %MON vort_r_max                   =   8.9657385579761E-05
(PID.TID 0000.0001) %MON vort_a_mean                  =  -6.5586096803907E-22
(PID.TID 0000.0001) %MON vort_a_sd                    =   1.5889649807104E-05
(PID.TID 0000.0001) %MON vort_p_mean                  =  -6.8228760045090E-22
(PID.TID 0000.0001) %MON vort_p_sd                    =   3.0669223294758E-05
(PID.TID 0000.0001) %MON surfExpan_theta_mean         =   1.4558779042770E-09
(PID.TID 0000.0001) %MON surfExpan_salt_mean          =   1.6750406018264E-20
(PID.TID 0000.0001) // =======================================================
(PID.TID 0000.0001) // End MONITOR dynamic field statistics
(PID.TID 0000.0001) // =======================================================
(PID.TID 0000.0001) // =======================================================
(PID.TID 0000.0001) // Begin MONITOR Therm.SeaIce statistics
(PID.TID 0000.0001) // =======================================================
(PID.TID 0000.0001) %MON thSI_time_sec                =   9.0000000000000E+03
(PID.TID 0000.0001) %MON thSI_Ice_Area_G              =   6.9168086290338E+10
(PID.TID 0000.0001) %MON thSI_Ice_Area_S              =   2.9187379088998E+10
(PID.TID 0000.0001) %MON thSI_Ice_Area_N              =   3.9980707201340E+10
(PID.TID 0000.0001) %MON thSI_IceH_ave_G              =   2.0091346746023E-01
(PID.TID 0000.0001) %MON thSI_IceH_ave_S              =   2.0210571111096E-01
(PID.TID 0000.0001) %MON thSI_IceH_ave_N              =   2.0004308597285E-01
(PID.TID 0000.0001) %MON thSI_IceH_max_S              =   2.9789945793175E-01
(PID.TID 0000.0001) %MON thSI_IceH_max_N              =   2.0107509296317E-01
(PID.TID 0000.0001) %MON thSI_SnwH_ave_G              =   0.0000000000000E+00
(PID.TID 0000.0001) %MON thSI_SnwH_ave_S              =   0.0000000000000E+00
(PID.TID 0000.0001) %MON thSI_SnwH_ave_N              =   0.0000000000000E+00
(PID.TID 0000.0001) %MON thSI_SnwH_max_S              =   0.0000000000000E+00
(PID.TID 0000.0001) %MON thSI_SnwH_max_N              =   0.0000000000000E+00
(PID.TID 0000.0001) %MON thSI_Tsrf_ave_G              =  -2.1813072242687E+00
(PID.TID 0000.0001) %MON thSI_Tsrf_ave_S              =  -2.1730313054170E+00
(PID.TID 0000.0001) %MON thSI_Tsrf_ave_N              =  -2.1873489478334E+00
(PID.TID 0000.0001) %MON thSI_Tsrf_min_S              =  -4.0444679950516E+00
(PID.TID 0000.0001) %MON thSI_Tsrf_min_N              =  -4.0456031141687E+00
(PID.TID 0000.0001) %MON thSI_Tsrf_max_S              =  -2.3864642798372E-01
(PID.TID 0000.0001) %MON thSI_Tsrf_max_N              =  -3.4257146729939E-01
(PID.TID 0000.0001) %MON thSI_Tic1_ave_G              =  -1.8825820256108E+00
(PID.TID 0000.0001) %MON thSI_Tic1_ave_S              =  -1.8849677007277E+00
(PID.TID 0000.0001) %MON thSI_Tic1_ave_N              =  -1.8808224377056E+00
(PID.TID 0000.0001) %MON thSI_Tic1_min_S              =  -2.5704690540319E+00
(PID.TID 0000.0001) %MON thSI_Tic1_min_N              =  -2.5704188088438E+00
(PID.TID 0000.0001) %MON thSI_Tic1_max_S              =  -1.2906441892946E+00
(PID.TID 0000.0001) %MON thSI_Tic1_max_N              =  -1.2986904804389E+00
(PID.TID 0000.0001) %MON thSI_Tic2_ave_G              =  -1.6936205297069E+00
(PID.TID 0000.0001) %MON thSI_Tic2_ave_S              =  -1.6945531743271E+00
(PID.TID 0000.0001) %MON thSI_Tic2_ave_N              =  -1.6929326446793E+00
(PID.TID 0000.0001) %MON thSI_Tic2_min_S              =  -1.8528051846434E+00
(PID.TID 0000.0001) %MON thSI_Tic2_min_N              =  -1.8528019982224E+00
(PID.TID 0000.0001) %MON thSI_Tic2_max_S              =  -5.8520713961356E-01
(PID.TID 0000.0001) %MON thSI_Tic2_max_N              =  -1.5550199512394E+00
(PID.TID 0000.0001) %MON thSI_TotEnerg_G              =  -4.1614248863624E+18
(PID.TID 0000.0001) // =======================================================
(PID.TID 0000.0001) // End MONITOR Therm.SeaIce statistics
(PID.TID 0000.0001) // =======================================================
 Compute Stats, Diag. #    140  SI_Fract  vol(   0 ): 2.780E+11  Parms: SM P    M1      
 Compute Stats, Diag. #    141  SI_Thick  vol(   0 ): 2.774E+11  Parms: SM PC   M1      
    use Counter Mate  #    140  SI_Fract  vol(   0 ): 2.780E+11 integral 2.774E+11
 Compute Stats, Diag. #     26  THETA     vol(   0 ): 2.780E+12  Parms: SMR     MR      
 Compute Stats, Diag. #    143  SI_Tsrf   vol(   0 ): 2.774E+11  Parms: SM  C   M1      
    use Counter Mate  #    140  SI_Fract  vol(   0 ): 2.780E+11 integral 2.774E+11
 Compute Stats, Diag. #    144  SI_Tice1  vol(   0 ): 2.774E+11  Parms: SM  C   M1      
    use Counter Mate  #    140  SI_Fract  vol(   0 ): 2.780E+11 integral 2.774E+11
 Compute Stats, Diag. #    145  SI_Tice2  vol(   0 ): 2.774E+11  Parms: SM  C   M1      
    use Counter Mate  #    140  SI_Fract  vol(   0 ): 2.780E+11 integral 2.774E+11
 Compute Stats, Diag. #    154  SIflx2oc  vol(   0 ): 2.780E+11  Parms: SM      M1      
 Compute Stats, Diag. #    155  SIfrw2oc  vol(   0 ): 2.780E+11  Parms: SM      M1      
 Compute Stats, Diag. #    156  SIsaltFx  vol(   0 ): 2.780E+11  Parms: SM      M1      
 Compute Stats, Diag. #    152  SIflxAtm  vol(   0 ): 2.780E+11  Parms: SM      M1      
 Compute Stats, Diag. #    153  SIfrwAtm  vol(   0 ): 2.780E+11  Parms: SM      M1      
 Compute Stats, Diag. #    142  SI_SnowH  vol(   0 ): 2.774E+11  Parms: SM PC   M1      
    use Counter Mate  #    140  SI_Fract  vol(   0 ): 2.780E+11 integral 2.774E+11
 Compute Stats, Diag. #    183  SIuice    vol(   0 ): 2.760E+11  Parms: UU      M1      
 Compute Stats, Diag. #    184  SIvice    vol(   0 ): 2.700E+11  Parms: VV      M1      
(PID.TID 0000.0001) // =======================================================
(PID.TID 0000.0001) // Begin MONITOR dynamic field statistics
(PID.TID 0000.0001) // =======================================================
(PID.TID 0000.0001) %MON time_tsnumber                =                     6
(PID.TID 0000.0001) %MON time_secondsf                =   1.0800000000000E+04
(PID.TID 0000.0001) %MON dynstat_eta_max              =   0.0000000000000E+00
(PID.TID 0000.0001) %MON dynstat_eta_min              =   0.0000000000000E+00
(PID.TID 0000.0001) %MON dynstat_eta_mean             =   0.0000000000000E+00
(PID.TID 0000.0001) %MON dynstat_eta_sd               =   0.0000000000000E+00
(PID.TID 0000.0001) %MON dynstat_eta_del2             =   0.0000000000000E+00
(PID.TID 0000.0001) %MON dynstat_uvel_max             =   5.4694595665363E-01
(PID.TID 0000.0001) %MON dynstat_uvel_min             =   8.1797628424127E-02
(PID.TID 0000.0001) %MON dynstat_uvel_mean            =   3.2603530929361E-01
(PID.TID 0000.0001) %MON dynstat_uvel_sd              =   8.4661197148990E-02
(PID.TID 0000.0001) %MON dynstat_uvel_del2            =   1.3392731599312E-04
(PID.TID 0000.0001) %MON dynstat_vvel_max             =   2.2780617104059E-01
(PID.TID 0000.0001) %MON dynstat_vvel_min             =  -1.4793000868950E-01
(PID.TID 0000.0001) %MON dynstat_vvel_mean            =  -3.2450632095700E-04
(PID.TID 0000.0001) %MON dynstat_vvel_sd              =   6.0970835295293E-02
(PID.TID 0000.0001) %MON dynstat_vvel_del2            =   8.1836652323282E-05
(PID.TID 0000.0001) %MON dynstat_wvel_max             =   1.6555698845343E-04
(PID.TID 0000.0001) %MON dynstat_wvel_min             =  -2.4393468746960E-04
(PID.TID 0000.0001) %MON dynstat_wvel_mean            =  -1.8006686469634E-21
(PID.TID 0000.0001) %MON dynstat_wvel_sd              =   1.8006622332191E-05
(PID.TID 0000.0001) %MON dynstat_wvel_del2            =   3.4047422448573E-07
(PID.TID 0000.0001) %MON dynstat_theta_max            =  -1.6177575901376E+00
(PID.TID 0000.0001) %MON dynstat_theta_min            =  -1.6206794338271E+00
(PID.TID 0000.0001) %MON dynstat_theta_mean           =  -1.6178469724995E+00
(PID.TID 0000.0001) %MON dynstat_theta_sd             =   2.0190182090521E-04
(PID.TID 0000.0001) %MON dynstat_theta_del2           =   2.7528231712607E-06
(PID.TID 0000.0001) %MON dynstat_salt_max             =   3.0000000000000E+01
(PID.TID 0000.0001) %MON dynstat_salt_min             =   3.0000000000000E+01
(PID.TID 0000.0001) %MON dynstat_salt_mean            =   3.0000000000000E+01
(PID.TID 0000.0001) %MON dynstat_salt_sd              =   0.0000000000000E+00
(PID.TID 0000.0001) %MON dynstat_salt_del2            =   0.0000000000000E+00
(PID.TID 0000.0001) %MON advcfl_uvel_max              =   1.9690054439531E-01
(PID.TID 0000.0001) %MON advcfl_vvel_max              =   8.2010221574612E-02
(PID.TID 0000.0001) %MON advcfl_wvel_max              =   8.7816487489057E-02
(PID.TID 0000.0001) %MON advcfl_W_hf_max              =   0.0000000000000E+00
(PID.TID 0000.0001) %MON pe_b_mean                    =   0.0000000000000E+00
(PID.TID 0000.0001) %MON ke_max                       =   1.4564487757410E-01
(PID.TID 0000.0001) %MON ke_mean                      =   5.8130401708830E-02
(PID.TID 0000.0001) %MON ke_vol                       =   6.9500000000000E+11
(PID.TID 0000.0001) %MON vort_r_min                   =  -1.4191202448594E-04
(PID.TID 0000.0001) %MON vort_r_max                   =   8.9657385579761E-05
(PID.TID 0000.0001) %MON vort_a_mean                  =  -6.5586096803907E-22
(PID.TID 0000.0001) %MON vort_a_sd                    =   1.5889649807104E-05
(PID.TID 0000.0001) %MON vort_p_mean                  =  -6.8228760045090E-22
(PID.TID 0000.0001) %MON vort_p_sd                    =   3.0669223294758E-05
(PID.TID 0000.0001) %MON surfExpan_theta_mean         =   2.0650510114107E-09
(PID.TID 0000.0001) %MON surfExpan_salt_mean          =   1.6750406018264E-20
(PID.TID 0000.0001) // =======================================================
(PID.TID 0000.0001) // End MONITOR dynamic field statistics
(PID.TID 0000.0001) // =======================================================
(PID.TID 0000.0001) // =======================================================
(PID.TID 0000.0001) // Begin MONITOR Therm.SeaIce statistics
(PID.TID 0000.0001) // =======================================================
(PID.TID 0000.0001) %MON thSI_time_sec                =   1.0800000000000E+04
(PID.TID 0000.0001) %MON thSI_Ice_Area_G              =   6.9102729901765E+10
(PID.TID 0000.0001) %MON thSI_Ice_Area_S              =   2.9126547906371E+10
(PID.TID 0000.0001) %MON thSI_Ice_Area_N              =   3.9976181995395E+10
(PID.TID 0000.0001) %MON thSI_IceH_ave_G              =   2.0109562493691E-01
(PID.TID 0000.0001) %MON thSI_IceH_ave_S              =   2.0252244899813E-01
(PID.TID 0000.0001) %MON thSI_IceH_ave_N              =   2.0005604443425E-01
(PID.TID 0000.0001) %MON thSI_IceH_max_S              =   3.1744207843483E-01
(PID.TID 0000.0001) %MON thSI_IceH_max_N              =   2.0130480005796E-01
(PID.TID 0000.0001) %MON thSI_SnwH_ave_G              =   0.0000000000000E+00
(PID.TID 0000.0001) %MON thSI_SnwH_ave_S              =   0.0000000000000E+00
(PID.TID 0000.0001) %MON thSI_SnwH_ave_N              =   0.0000000000000E+00
(PID.TID 0000.0001) %MON thSI_SnwH_max_S              =   0.0000000000000E+00
(PID.TID 0000.0001) %MON thSI_SnwH_max_N              =   0.0000000000000E+00
(PID.TID 0000.0001) %MON thSI_Tsrf_ave_G              =  -2.2001033823340E+00
(PID.TID 0000.0001) %MON thSI_Tsrf_ave_S              =  -2.1910280095086E+00
(PID.TID 0000.0001) %MON thSI_Tsrf_ave_N              =  -2.2067156766595E+00
(PID.TID 0000.0001) %MON thSI_Tsrf_min_S              =  -4.1272314070832E+00
(PID.TID 0000.0001) %MON thSI_Tsrf_min_N              =  -4.1283313511122E+00
(PID.TID 0000.0001) %MON thSI_Tsrf_max_S              =  -1.9545541138423E-01
(PID.TID 0000.0001) %MON thSI_Tsrf_max_N              =  -3.1645272576006E-01
(PID.TID 0000.0001) %MON thSI_Tic1_ave_G              =  -1.9194711779721E+00
(PID.TID 0000.0001) %MON thSI_Tic1_ave_S              =  -1.9224524399441E+00
(PID.TID 0000.0001) %MON thSI_Tic1_ave_N              =  -1.9172722584521E+00
(PID.TID 0000.0001) %MON thSI_Tic1_min_S              =  -2.7286593812882E+00
(PID.TID 0000.0001) %MON thSI_Tic1_min_N              =  -2.7285699529461E+00
(PID.TID 0000.0001) %MON thSI_Tic1_max_S              =  -1.2245486015227E+00
(PID.TID 0000.0001) %MON thSI_Tic1_max_N              =  -1.2458575212912E+00
(PID.TID 0000.0001) %MON thSI_Tic2_ave_G              =  -1.7033217996231E+00
(PID.TID 0000.0001) %MON thSI_Tic2_ave_S              =  -1.7045630353776E+00
(PID.TID 0000.0001) %MON thSI_Tic2_ave_N              =  -1.7024062888244E+00
(PID.TID 0000.0001) %MON thSI_Tic2_min_S              =  -1.9028277980932E+00
(PID.TID 0000.0001) %MON thSI_Tic2_min_N              =  -1.9028201212692E+00
(PID.TID 0000.0001) %MON thSI_Tic2_max_S              =  -5.2024678094934E-01
(PID.TID 0000.0001) %MON thSI_Tic2_max_N              =  -1.5331310775011E+00
(PID.TID 0000.0001) %MON thSI_TotEnerg_G              =  -4.1618729206049E+18
(PID.TID 0000.0001) // =======================================================
(PID.TID 0000.0001) // End MONITOR Therm.SeaIce statistics
(PID.TID 0000.0001) // =======================================================
(PID.TID 0000.0001) // =======================================================
(PID.TID 0000.0001) // Begin MONITOR dynamic field statistics
(PID.TID 0000.0001) // =======================================================
(PID.TID 0000.0001) %MON time_tsnumber                =                     7
(PID.TID 0000.0001) %MON time_secondsf                =   1.2600000000000E+04
(PID.TID 0000.0001) %MON dynstat_eta_max              =   0.0000000000000E+00
(PID.TID 0000.0001) %MON dynstat_eta_min              =   0.0000000000000E+00
(PID.TID 0000.0001) %MON dynstat_eta_mean             =   0.0000000000000E+00
(PID.TID 0000.0001) %MON dynstat_eta_sd               =   0.0000000000000E+00
(PID.TID 0000.0001) %MON dynstat_eta_del2             =   0.0000000000000E+00
(PID.TID 0000.0001) %MON dynstat_uvel_max             =   5.4694595665363E-01
(PID.TID 0000.0001) %MON dynstat_uvel_min             =   8.1797628424127E-02
(PID.TID 0000.0001) %MON dynstat_uvel_mean            =   3.2603530929361E-01
(PID.TID 0000.0001) %MON dynstat_uvel_sd              =   8.4661197148990E-02
(PID.TID 0000.0001) %MON dynstat_uvel_del2            =   1.3392731599312E-04
(PID.TID 0000.0001) %MON dynstat_vvel_max             =   2.2780617104059E-01
(PID.TID 0000.0001) %MON dynstat_vvel_min             =  -1.4793000868950E-01
(PID.TID 0000.0001) %MON dynstat_vvel_mean            =  -3.2450632095700E-04
(PID.TID 0000.0001) %MON dynstat_vvel_sd              =   6.0970835295293E-02
(PID.TID 0000.0001) %MON dynstat_vvel_del2            =   8.1836652323282E-05
(PID.TID 0000.0001) %MON dynstat_wvel_max             =   1.6555698845343E-04
(PID.TID 0000.0001) %MON dynstat_wvel_min             =  -2.4393468746960E-04
(PID.TID 0000.0001) %MON dynstat_wvel_mean            =  -1.8006686469634E-21
(PID.TID 0000.0001) %MON dynstat_wvel_sd              =   1.8006622332191E-05
(PID.TID 0000.0001) %MON dynstat_wvel_del2            =   3.4047422448573E-07
(PID.TID 0000.0001) %MON dynstat_theta_max            =  -1.6174032270424E+00
(PID.TID 0000.0001) %MON dynstat_theta_min            =  -1.6208374598474E+00
(PID.TID 0000.0001) %MON dynstat_theta_mean           =  -1.6175245744777E+00
(PID.TID 0000.0001) %MON dynstat_theta_sd             =   2.5256709219422E-04
(PID.TID 0000.0001) %MON dynstat_theta_del2           =   2.9258212588112E-06
(PID.TID 0000.0001) %MON dynstat_salt_max             =   3.0000000000000E+01
(PID.TID 0000.0001) %MON dynstat_salt_min             =   3.0000000000000E+01
(PID.TID 0000.0001) %MON dynstat_salt_mean            =   3.0000000000000E+01
(PID.TID 0000.0001) %MON dynstat_salt_sd              =   0.0000000000000E+00
(PID.TID 0000.0001) %MON dynstat_salt_del2            =   0.0000000000000E+00
(PID.TID 0000.0001) %MON advcfl_uvel_max              =   1.9690054439531E-01
(PID.TID 0000.0001) %MON advcfl_vvel_max              =   8.2010221574612E-02
(PID.TID 0000.0001) %MON advcfl_wvel_max              =   8.7816487489057E-02
(PID.TID 0000.0001) %MON advcfl_W_hf_max              =   0.0000000000000E+00
(PID.TID 0000.0001) %MON pe_b_mean                    =   0.0000000000000E+00
(PID.TID 0000.0001) %MON ke_max                       =   1.4564487757410E-01
(PID.TID 0000.0001) %MON ke_mean                      =   5.8130401708830E-02
(PID.TID 0000.0001) %MON ke_vol                       =   6.9500000000000E+11
(PID.TID 0000.0001) %MON vort_r_min                   =  -1.4191202448594E-04
(PID.TID 0000.0001) %MON vort_r_max                   =   8.9657385579761E-05
(PID.TID 0000.0001) %MON vort_a_mean                  =  -6.5586096803907E-22
(PID.TID 0000.0001) %MON vort_a_sd                    =   1.5889649807104E-05
(PID.TID 0000.0001) %MON vort_p_mean                  =  -6.8228760045090E-22
(PID.TID 0000.0001) %MON vort_p_sd                    =   3.0669223294758E-05
(PID.TID 0000.0001) %MON surfExpan_theta_mean         =   2.5945354617365E-09
(PID.TID 0000.0001) %MON surfExpan_salt_mean          =   1.6750406018264E-20
(PID.TID 0000.0001) // =======================================================
(PID.TID 0000.0001) // End MONITOR dynamic field statistics
(PID.TID 0000.0001) // =======================================================
(PID.TID 0000.0001) // =======================================================
(PID.TID 0000.0001) // Begin MONITOR Therm.SeaIce statistics
(PID.TID 0000.0001) // =======================================================
(PID.TID 0000.0001) %MON thSI_time_sec                =   1.2600000000000E+04
(PID.TID 0000.0001) %MON thSI_Ice_Area_G              =   6.9037436547136E+10
(PID.TID 0000.0001) %MON thSI_Ice_Area_S              =   2.9066006278936E+10
(PID.TID 0000.0001) %MON thSI_Ice_Area_N              =   3.9971430268200E+10
(PID.TID 0000.0001) %MON thSI_IceH_ave_G              =   2.0127964484574E-01
(PID.TID 0000.0001) %MON thSI_IceH_ave_S              =   2.0294012164909E-01
(PID.TID 0000.0001) %MON thSI_IceH_ave_N              =   2.0007219670419E-01
(PID.TID 0000.0001) %MON thSI_IceH_max_S              =   3.3491530734796E-01
(PID.TID 0000.0001) %MON thSI_IceH_max_N              =   2.0159100204359E-01
(PID.TID 0000.0001) %MON thSI_SnwH_ave_G              =   0.0000000000000E+00
(PID.TID 0000.0001) %MON thSI_SnwH_ave_S              =   0.0000000000000E+00
(PID.TID 0000.0001) %MON thSI_SnwH_ave_N              =   0.0000000000000E+00
(PID.TID 0000.0001) %MON thSI_SnwH_max_S              =   0.0000000000000E+00
(PID.TID 0000.0001) %MON thSI_SnwH_max_N              =   0.0000000000000E+00
(PID.TID 0000.0001) %MON thSI_Tsrf_ave_G              =  -2.2177075990921E+00
(PID.TID 0000.0001) %MON thSI_Tsrf_ave_S              =  -2.2078126805025E+00
(PID.TID 0000.0001) %MON thSI_Tsrf_ave_N              =  -2.2249028824214E+00
(PID.TID 0000.0001) %MON thSI_Tsrf_min_S              =  -4.2040248524981E+00
(PID.TID 0000.0001) %MON thSI_Tsrf_min_N              =  -4.2048877806825E+00
(PID.TID 0000.0001) %MON thSI_Tsrf_max_S              =  -1.5882398039064E-01
(PID.TID 0000.0001) %MON thSI_Tsrf_max_N              =  -2.9312913849641E-01
(PID.TID 0000.0001) %MON thSI_Tic1_ave_G              =  -1.9539963128693E+00
(PID.TID 0000.0001) %MON thSI_Tic1_ave_S              =  -1.9573988708042E+00
(PID.TID 0000.0001) %MON thSI_Tic1_ave_N              =  -1.9514866095855E+00
(PID.TID 0000.0001) %MON thSI_Tic1_min_S              =  -2.8749964805162E+00
(PID.TID 0000.0001) %MON thSI_Tic1_min_N              =  -2.8747373697271E+00
(PID.TID 0000.0001) %MON thSI_Tic1_max_S              =  -1.1643315220594E+00
(PID.TID 0000.0001) %MON thSI_Tic1_max_N              =  -1.1986503678760E+00
(PID.TID 0000.0001) %MON thSI_Tic2_ave_G              =  -1.7136847074434E+00
(PID.TID 0000.0001) %MON thSI_Tic2_ave_S              =  -1.7152128578850E+00
(PID.TID 0000.0001) %MON thSI_Tic2_ave_N              =  -1.7125575542091E+00
(PID.TID 0000.0001) %MON thSI_Tic2_min_S              =  -1.9523295923170E+00
(PID.TID 0000.0001) %MON thSI_Tic2_min_N              =  -1.9523139639864E+00
(PID.TID 0000.0001) %MON thSI_Tic2_max_S              =  -4.7177400602053E-01
(PID.TID 0000.0001) %MON thSI_Tic2_max_N              =  -1.5134985592175E+00
(PID.TID 0000.0001) %MON thSI_TotEnerg_G              =  -4.1622151231959E+18
(PID.TID 0000.0001) // =======================================================
(PID.TID 0000.0001) // End MONITOR Therm.SeaIce statistics
(PID.TID 0000.0001) // =======================================================
(PID.TID 0000.0001) // =======================================================
(PID.TID 0000.0001) // Begin MONITOR dynamic field statistics
(PID.TID 0000.0001) // =======================================================
(PID.TID 0000.0001) %MON time_tsnumber                =                     8
(PID.TID 0000.0001) %MON time_secondsf                =   1.4400000000000E+04
(PID.TID 0000.0001) %MON dynstat_eta_max              =   0.0000000000000E+00
(PID.TID 0000.0001) %MON dynstat_eta_min              =   0.0000000000000E+00
(PID.TID 0000.0001) %MON dynstat_eta_mean             =   0.0000000000000E+00
(PID.TID 0000.0001) %MON dynstat_eta_sd               =   0.0000000000000E+00
(PID.TID 0000.0001) %MON dynstat_eta_del2             =   0.0000000000000E+00
(PID.TID 0000.0001) %MON dynstat_uvel_max             =   5.4694595665363E-01
(PID.TID 0000.0001) %MON dynstat_uvel_min             =   8.1797628424127E-02
(PID.TID 0000.0001) %MON dynstat_uvel_mean            =   3.2603530929361E-01
(PID.TID 0000.0001) %MON dynstat_uvel_sd              =   8.4661197148990E-02
(PID.TID 0000.0001) %MON dynstat_uvel_del2            =   1.3392731599312E-04
(PID.TID 0000.0001) %MON dynstat_vvel_max             =   2.2780617104059E-01
(PID.TID 0000.0001) %MON dynstat_vvel_min             =  -1.4793000868950E-01
(PID.TID 0000.0001) %MON dynstat_vvel_mean            =  -3.2450632095700E-04
(PID.TID 0000.0001) %MON dynstat_vvel_sd              =   6.0970835295293E-02
(PID.TID 0000.0001) %MON dynstat_vvel_del2            =   8.1836652323282E-05
(PID.TID 0000.0001) %MON dynstat_wvel_max             =   1.6555698845343E-04
(PID.TID 0000.0001) %MON dynstat_wvel_min             =  -2.4393468746960E-04
(PID.TID 0000.0001) %MON dynstat_wvel_mean            =  -1.8006686469634E-21
(PID.TID 0000.0001) %MON dynstat_wvel_sd              =   1.8006622332191E-05
(PID.TID 0000.0001) %MON dynstat_wvel_del2            =   3.4047422448573E-07
(PID.TID 0000.0001) %MON dynstat_theta_max            =  -1.6170535765416E+00
(PID.TID 0000.0001) %MON dynstat_theta_min            =  -1.6209859571762E+00
(PID.TID 0000.0001) %MON dynstat_theta_mean           =  -1.6172113078335E+00
(PID.TID 0000.0001) %MON dynstat_theta_sd             =   3.0246080070582E-04
(PID.TID 0000.0001) %MON dynstat_theta_del2           =   2.8868809944800E-06
(PID.TID 0000.0001) %MON dynstat_salt_max             =   3.0000000000000E+01
(PID.TID 0000.0001) %MON dynstat_salt_min             =   3.0000000000000E+01
(PID.TID 0000.0001) %MON dynstat_salt_mean            =   3.0000000000000E+01
(PID.TID 0000.0001) %MON dynstat_salt_sd              =   0.0000000000000E+00
(PID.TID 0000.0001) %MON dynstat_salt_del2            =   0.0000000000000E+00
(PID.TID 0000.0001) %MON advcfl_uvel_max              =   1.9690054439531E-01
(PID.TID 0000.0001) %MON advcfl_vvel_max              =   8.2010221574612E-02
(PID.TID 0000.0001) %MON advcfl_wvel_max              =   8.7816487489057E-02
(PID.TID 0000.0001) %MON advcfl_W_hf_max              =   0.0000000000000E+00
(PID.TID 0000.0001) %MON pe_b_mean                    =   0.0000000000000E+00
(PID.TID 0000.0001) %MON ke_max                       =   1.4564487757410E-01
(PID.TID 0000.0001) %MON ke_mean                      =   5.8130401708830E-02
(PID.TID 0000.0001) %MON ke_vol                       =   6.9500000000000E+11
(PID.TID 0000.0001) %MON vort_r_min                   =  -1.4191202448594E-04
(PID.TID 0000.0001) %MON vort_r_max                   =   8.9657385579761E-05
(PID.TID 0000.0001) %MON vort_a_mean                  =  -6.5586096803907E-22
(PID.TID 0000.0001) %MON vort_a_sd                    =   1.5889649807104E-05
(PID.TID 0000.0001) %MON vort_p_mean                  =  -6.8228760045090E-22
(PID.TID 0000.0001) %MON vort_p_sd                    =   3.0669223294758E-05
(PID.TID 0000.0001) %MON surfExpan_theta_mean         =   3.0990780700238E-09
(PID.TID 0000.0001) %MON surfExpan_salt_mean          =   1.6750406018264E-20
(PID.TID 0000.0001) // =======================================================
(PID.TID 0000.0001) // End MONITOR dynamic field statistics
(PID.TID 0000.0001) // =======================================================
(PID.TID 0000.0001) // =======================================================
(PID.TID 0000.0001) // Begin MONITOR Therm.SeaIce statistics
(PID.TID 0000.0001) // =======================================================
(PID.TID 0000.0001) %MON thSI_time_sec                =   1.4400000000000E+04
(PID.TID 0000.0001) %MON thSI_Ice_Area_G              =   6.8972139598470E+10
(PID.TID 0000.0001) %MON thSI_Ice_Area_S              =   2.9005701714232E+10
(PID.TID 0000.0001) %MON thSI_Ice_Area_N              =   3.9966437884238E+10
(PID.TID 0000.0001) %MON thSI_IceH_ave_G              =   2.0146569936842E-01
(PID.TID 0000.0001) %MON thSI_IceH_ave_S              =   2.0335916678701E-01
(PID.TID 0000.0001) %MON thSI_IceH_ave_N              =   2.0009151257428E-01
(PID.TID 0000.0001) %MON thSI_IceH_max_S              =   3.5062839485506E-01
(PID.TID 0000.0001) %MON thSI_IceH_max_N              =   2.0191695163984E-01
(PID.TID 0000.0001) %MON thSI_SnwH_ave_G              =   0.0000000000000E+00
(PID.TID 0000.0001) %MON thSI_SnwH_ave_S              =   0.0000000000000E+00
(PID.TID 0000.0001) %MON thSI_SnwH_ave_N              =   0.0000000000000E+00
(PID.TID 0000.0001) %MON thSI_SnwH_max_S              =   0.0000000000000E+00
(PID.TID 0000.0001) %MON thSI_SnwH_max_N              =   0.0000000000000E+00
(PID.TID 0000.0001) %MON thSI_Tsrf_ave_G              =  -2.2338424600722E+00
(PID.TID 0000.0001) %MON thSI_Tsrf_ave_S              =  -2.2230692341582E+00
(PID.TID 0000.0001) %MON thSI_Tsrf_ave_N              =  -2.2416611447963E+00
(PID.TID 0000.0001) %MON thSI_Tsrf_min_S              =  -4.2742985945280E+00
(PID.TID 0000.0001) %MON thSI_Tsrf_min_N              =  -4.2746761346035E+00
(PID.TID 0000.0001) %MON thSI_Tsrf_max_S              =  -1.2760960207300E-01
(PID.TID 0000.0001) %MON thSI_Tsrf_max_N              =  -2.7216572503755E-01
(PID.TID 0000.0001) %MON thSI_Tic1_ave_G              =  -1.9856509592633E+00
(PID.TID 0000.0001) %MON thSI_Tic1_ave_S              =  -1.9892589998496E+00
(PID.TID 0000.0001) %MON thSI_Tic1_ave_N              =  -1.9829896555806E+00
(PID.TID 0000.0001) %MON thSI_Tic1_min_S              =  -3.0083621807894E+00
(PID.TID 0000.0001) %MON thSI_Tic1_min_N              =  -3.0077753933323E+00
(PID.TID 0000.0001) %MON thSI_Tic1_max_S              =  -1.1094854920328E+00
(PID.TID 0000.0001) %MON thSI_Tic1_max_N              =  -1.1561958148451E+00
(PID.TID 0000.0001) %MON thSI_Tic2_ave_G              =  -1.7241134008789E+00
(PID.TID 0000.0001) %MON thSI_Tic2_ave_S              =  -1.7258847574549E+00
(PID.TID 0000.0001) %MON thSI_Tic2_ave_N              =  -1.7228068419125E+00
(PID.TID 0000.0001) %MON thSI_Tic2_min_S              =  -1.9998895099529E+00
(PID.TID 0000.0001) %MON thSI_Tic2_min_N              =  -1.9998611742141E+00
(PID.TID 0000.0001) %MON thSI_Tic2_max_S              =  -4.3438233865282E-01
(PID.TID 0000.0001) %MON thSI_Tic2_max_N              =  -1.4958769938525E+00
(PID.TID 0000.0001) %MON thSI_TotEnerg_G              =  -4.1624574664829E+18
(PID.TID 0000.0001) // =======================================================
(PID.TID 0000.0001) // End MONITOR Therm.SeaIce statistics
(PID.TID 0000.0001) // =======================================================
(PID.TID 0000.0001) // =======================================================
(PID.TID 0000.0001) // Begin MONITOR dynamic field statistics
(PID.TID 0000.0001) // =======================================================
(PID.TID 0000.0001) %MON time_tsnumber                =                     9
(PID.TID 0000.0001) %MON time_secondsf                =   1.6200000000000E+04
(PID.TID 0000.0001) %MON dynstat_eta_max              =   0.0000000000000E+00
(PID.TID 0000.0001) %MON dynstat_eta_min              =   0.0000000000000E+00
(PID.TID 0000.0001) %MON dynstat_eta_mean             =   0.0000000000000E+00
(PID.TID 0000.0001) %MON dynstat_eta_sd               =   0.0000000000000E+00
(PID.TID 0000.0001) %MON dynstat_eta_del2             =   0.0000000000000E+00
(PID.TID 0000.0001) %MON dynstat_uvel_max             =   5.4694595665363E-01
(PID.TID 0000.0001) %MON dynstat_uvel_min             =   8.1797628424127E-02
(PID.TID 0000.0001) %MON dynstat_uvel_mean            =   3.2603530929361E-01
(PID.TID 0000.0001) %MON dynstat_uvel_sd              =   8.4661197148990E-02
(PID.TID 0000.0001) %MON dynstat_uvel_del2            =   1.3392731599312E-04
(PID.TID 0000.0001) %MON dynstat_vvel_max             =   2.2780617104059E-01
(PID.TID 0000.0001) %MON dynstat_vvel_min             =  -1.4793000868950E-01
(PID.TID 0000.0001) %MON dynstat_vvel_mean            =  -3.2450632095700E-04
(PID.TID 0000.0001) %MON dynstat_vvel_sd              =   6.0970835295293E-02
(PID.TID 0000.0001) %MON dynstat_vvel_del2            =   8.1836652323282E-05
(PID.TID 0000.0001) %MON dynstat_wvel_max             =   1.6555698845343E-04
(PID.TID 0000.0001) %MON dynstat_wvel_min             =  -2.4393468746960E-04
(PID.TID 0000.0001) %MON dynstat_wvel_mean            =  -1.8006686469634E-21
(PID.TID 0000.0001) %MON dynstat_wvel_sd              =   1.8006622332191E-05
(PID.TID 0000.0001) %MON dynstat_wvel_del2            =   3.4047422448573E-07
(PID.TID 0000.0001) %MON dynstat_theta_max            =  -1.6167087015376E+00
(PID.TID 0000.0001) %MON dynstat_theta_min            =  -1.6211276213740E+00
(PID.TID 0000.0001) %MON dynstat_theta_mean           =  -1.6169070995419E+00
(PID.TID 0000.0001) %MON dynstat_theta_sd             =   3.5412966162241E-04
(PID.TID 0000.0001) %MON dynstat_theta_del2           =   2.9230653402868E-06
(PID.TID 0000.0001) %MON dynstat_salt_max             =   3.0000000000000E+01
(PID.TID 0000.0001) %MON dynstat_salt_min             =   3.0000000000000E+01
(PID.TID 0000.0001) %MON dynstat_salt_mean            =   3.0000000000000E+01
(PID.TID 0000.0001) %MON dynstat_salt_sd              =   0.0000000000000E+00
(PID.TID 0000.0001) %MON dynstat_salt_del2            =   0.0000000000000E+00
(PID.TID 0000.0001) %MON advcfl_uvel_max              =   1.9690054439531E-01
(PID.TID 0000.0001) %MON advcfl_vvel_max              =   8.2010221574612E-02
(PID.TID 0000.0001) %MON advcfl_wvel_max              =   8.7816487489057E-02
(PID.TID 0000.0001) %MON advcfl_W_hf_max              =   0.0000000000000E+00
(PID.TID 0000.0001) %MON pe_b_mean                    =   0.0000000000000E+00
(PID.TID 0000.0001) %MON ke_max                       =   1.4564487757410E-01
(PID.TID 0000.0001) %MON ke_mean                      =   5.8130401708830E-02
(PID.TID 0000.0001) %MON ke_vol                       =   6.9500000000000E+11
(PID.TID 0000.0001) %MON vort_r_min                   =  -1.4191202448594E-04
(PID.TID 0000.0001) %MON vort_r_max                   =   8.9657385579761E-05
(PID.TID 0000.0001) %MON vort_a_mean                  =  -6.5586096803907E-22
(PID.TID 0000.0001) %MON vort_a_sd                    =   1.5889649807104E-05
(PID.TID 0000.0001) %MON vort_p_mean                  =  -6.8228760045090E-22
(PID.TID 0000.0001) %MON vort_p_sd                    =   3.0669223294758E-05
(PID.TID 0000.0001) %MON surfExpan_theta_mean         =   3.5964931411464E-09
(PID.TID 0000.0001) %MON surfExpan_salt_mean          =   1.6750406018264E-20
(PID.TID 0000.0001) // =======================================================
(PID.TID 0000.0001) // End MONITOR dynamic field statistics
(PID.TID 0000.0001) // =======================================================
(PID.TID 0000.0001) // =======================================================
(PID.TID 0000.0001) // Begin MONITOR Therm.SeaIce statistics
(PID.TID 0000.0001) // =======================================================
(PID.TID 0000.0001) %MON thSI_time_sec                =   1.6200000000000E+04
(PID.TID 0000.0001) %MON thSI_Ice_Area_G              =   6.8906806047504E+10
(PID.TID 0000.0001) %MON thSI_Ice_Area_S              =   2.8945605801249E+10
(PID.TID 0000.0001) %MON thSI_Ice_Area_N              =   3.9961200246255E+10
(PID.TID 0000.0001) %MON thSI_IceH_ave_G              =   2.0165380147964E-01
(PID.TID 0000.0001) %MON thSI_IceH_ave_S              =   2.0377985015942E-01
(PID.TID 0000.0001) %MON thSI_IceH_ave_N              =   2.0011381352582E-01
(PID.TID 0000.0001) %MON thSI_IceH_max_S              =   3.6492328352234E-01
(PID.TID 0000.0001) %MON thSI_IceH_max_N              =   2.0233239254201E-01
(PID.TID 0000.0001) %MON thSI_SnwH_ave_G              =   0.0000000000000E+00
(PID.TID 0000.0001) %MON thSI_SnwH_ave_S              =   0.0000000000000E+00
(PID.TID 0000.0001) %MON thSI_SnwH_ave_N              =   0.0000000000000E+00
(PID.TID 0000.0001) %MON thSI_SnwH_max_S              =   0.0000000000000E+00
(PID.TID 0000.0001) %MON thSI_SnwH_max_N              =   0.0000000000000E+00
(PID.TID 0000.0001) %MON thSI_Tsrf_ave_G              =  -2.2483553072620E+00
(PID.TID 0000.0001) %MON thSI_Tsrf_ave_S              =  -2.2366193563979E+00
(PID.TID 0000.0001) %MON thSI_Tsrf_ave_N              =  -2.2568561582204E+00
(PID.TID 0000.0001) %MON thSI_Tsrf_min_S              =  -4.3376124509357E+00
(PID.TID 0000.0001) %MON thSI_Tsrf_min_N              =  -4.3374979427270E+00
(PID.TID 0000.0001) %MON thSI_Tsrf_max_S              =  -1.0078468118003E-01
(PID.TID 0000.0001) %MON thSI_Tsrf_max_N              =  -2.5321486830466E-01
(PID.TID 0000.0001) %MON thSI_Tic1_ave_G              =  -2.0141644990908E+00
(PID.TID 0000.0001) %MON thSI_Tic1_ave_S              =  -2.0177403127994E+00
(PID.TID 0000.0001) %MON thSI_Tic1_ave_N              =  -2.0115269340694E+00
(PID.TID 0000.0001) %MON thSI_Tic1_min_S              =  -3.1282071906502E+00
(PID.TID 0000.0001) %MON thSI_Tic1_min_N              =  -3.1273185196293E+00
(PID.TID 0000.0001) %MON thSI_Tic1_max_S              =  -1.0594677728930E+00
(PID.TID 0000.0001) %MON thSI_Tic1_max_N              =  -1.1177942406941E+00
(PID.TID 0000.0001) %MON thSI_Tic2_ave_G              =  -1.7341984166885E+00
(PID.TID 0000.0001) %MON thSI_Tic2_ave_S              =  -1.7361530604629E+00
(PID.TID 0000.0001) %MON thSI_Tic2_ave_N              =  -1.7327566469353E+00
(PID.TID 0000.0001) %MON thSI_Tic2_min_S              =  -2.0445662539913E+00
(PID.TID 0000.0001) %MON thSI_Tic2_min_N              =  -2.0445190345321E+00
(PID.TID 0000.0001) %MON thSI_Tic2_max_S              =  -4.0459247146516E-01
(PID.TID 0000.0001) %MON thSI_Tic2_max_N              =  -1.4800254103125E+00
(PID.TID 0000.0001) %MON thSI_TotEnerg_G              =  -4.1626073872400E+18
(PID.TID 0000.0001) // =======================================================
(PID.TID 0000.0001) // End MONITOR Therm.SeaIce statistics
(PID.TID 0000.0001) // =======================================================
 Compute Stats, Diag. #    140  SI_Fract  vol(   0 ): 2.780E+11  Parms: SM P    M1      
 Compute Stats, Diag. #    141  SI_Thick  vol(   0 ): 2.763E+11  Parms: SM PC   M1      
    use Counter Mate  #    140  SI_Fract  vol(   0 ): 2.780E+11 integral 2.763E+11
 Compute Stats, Diag. #     26  THETA     vol(   0 ): 2.780E+12  Parms: SMR     MR      
 Compute Stats, Diag. #    143  SI_Tsrf   vol(   0 ): 2.763E+11  Parms: SM  C   M1      
    use Counter Mate  #    140  SI_Fract  vol(   0 ): 2.780E+11 integral 2.763E+11
 Compute Stats, Diag. #    144  SI_Tice1  vol(   0 ): 2.763E+11  Parms: SM  C   M1      
    use Counter Mate  #    140  SI_Fract  vol(   0 ): 2.780E+11 integral 2.763E+11
 Compute Stats, Diag. #    145  SI_Tice2  vol(   0 ): 2.763E+11  Parms: SM  C   M1      
    use Counter Mate  #    140  SI_Fract  vol(   0 ): 2.780E+11 integral 2.763E+11
 Compute Stats, Diag. #    154  SIflx2oc  vol(   0 ): 2.780E+11  Parms: SM      M1      
 Compute Stats, Diag. #    155  SIfrw2oc  vol(   0 ): 2.780E+11  Parms: SM      M1      
 Compute Stats, Diag. #    156  SIsaltFx  vol(   0 ): 2.780E+11  Parms: SM      M1      
 Compute Stats, Diag. #    152  SIflxAtm  vol(   0 ): 2.780E+11  Parms: SM      M1      
 Compute Stats, Diag. #    153  SIfrwAtm  vol(   0 ): 2.780E+11  Parms: SM      M1      
 Compute Stats, Diag. #    142  SI_SnowH  vol(   0 ): 2.763E+11  Parms: SM PC   M1      
    use Counter Mate  #    140  SI_Fract  vol(   0 ): 2.780E+11 integral 2.763E+11
 Compute Stats, Diag. #    183  SIuice    vol(   0 ): 2.760E+11  Parms: UU      M1      
 Compute Stats, Diag. #    184  SIvice    vol(   0 ): 2.700E+11  Parms: VV      M1      
(PID.TID 0000.0001) // =======================================================
(PID.TID 0000.0001) // Begin MONITOR dynamic field statistics
(PID.TID 0000.0001) // =======================================================
(PID.TID 0000.0001) %MON time_tsnumber                =                    10
(PID.TID 0000.0001) %MON time_secondsf                =   1.8000000000000E+04
(PID.TID 0000.0001) %MON dynstat_eta_max              =   0.0000000000000E+00
(PID.TID 0000.0001) %MON dynstat_eta_min              =   0.0000000000000E+00
(PID.TID 0000.0001) %MON dynstat_eta_mean             =   0.0000000000000E+00
(PID.TID 0000.0001) %MON dynstat_eta_sd               =   0.0000000000000E+00
(PID.TID 0000.0001) %MON dynstat_eta_del2             =   0.0000000000000E+00
(PID.TID 0000.0001) %MON dynstat_uvel_max             =   5.4694595665363E-01
(PID.TID 0000.0001) %MON dynstat_uvel_min             =   8.1797628424127E-02
(PID.TID 0000.0001) %MON dynstat_uvel_mean            =   3.2603530929361E-01
(PID.TID 0000.0001) %MON dynstat_uvel_sd              =   8.4661197148990E-02
(PID.TID 0000.0001) %MON dynstat_uvel_del2            =   1.3392731599312E-04
(PID.TID 0000.0001) %MON dynstat_vvel_max             =   2.2780617104059E-01
(PID.TID 0000.0001) %MON dynstat_vvel_min             =  -1.4793000868950E-01
(PID.TID 0000.0001) %MON dynstat_vvel_mean            =  -3.2450632095700E-04
(PID.TID 0000.0001) %MON dynstat_vvel_sd              =   6.0970835295293E-02
(PID.TID 0000.0001) %MON dynstat_vvel_del2            =   8.1836652323282E-05
(PID.TID 0000.0001) %MON dynstat_wvel_max             =   1.6555698845343E-04
(PID.TID 0000.0001) %MON dynstat_wvel_min             =  -2.4393468746960E-04
(PID.TID 0000.0001) %MON dynstat_wvel_mean            =  -1.8006686469634E-21
(PID.TID 0000.0001) %MON dynstat_wvel_sd              =   1.8006622332191E-05
(PID.TID 0000.0001) %MON dynstat_wvel_del2            =   3.4047422448573E-07
(PID.TID 0000.0001) %MON dynstat_theta_max            =  -1.6163688598942E+00
(PID.TID 0000.0001) %MON dynstat_theta_min            =  -1.6212608442607E+00
(PID.TID 0000.0001) %MON dynstat_theta_mean           =  -1.6166118071601E+00
(PID.TID 0000.0001) %MON dynstat_theta_sd             =   4.0898382487149E-04
(PID.TID 0000.0001) %MON dynstat_theta_del2           =   3.4240803491815E-06
(PID.TID 0000.0001) %MON dynstat_salt_max             =   3.0000000000000E+01
(PID.TID 0000.0001) %MON dynstat_salt_min             =   3.0000000000000E+01
(PID.TID 0000.0001) %MON dynstat_salt_mean            =   3.0000000000000E+01
(PID.TID 0000.0001) %MON dynstat_salt_sd              =   0.0000000000000E+00
(PID.TID 0000.0001) %MON dynstat_salt_del2            =   0.0000000000000E+00
(PID.TID 0000.0001) %MON advcfl_uvel_max              =   1.9690054439531E-01
(PID.TID 0000.0001) %MON advcfl_vvel_max              =   8.2010221574612E-02
(PID.TID 0000.0001) %MON advcfl_wvel_max              =   8.7816487489057E-02
(PID.TID 0000.0001) %MON advcfl_W_hf_max              =   0.0000000000000E+00
(PID.TID 0000.0001) %MON pe_b_mean                    =   0.0000000000000E+00
(PID.TID 0000.0001) %MON ke_max                       =   1.4564487757410E-01
(PID.TID 0000.0001) %MON ke_mean                      =   5.8130401708830E-02
(PID.TID 0000.0001) %MON ke_vol                       =   6.9500000000000E+11
(PID.TID 0000.0001) %MON vort_r_min                   =  -1.4191202448594E-04
(PID.TID 0000.0001) %MON vort_r_max                   =   8.9657385579761E-05
(PID.TID 0000.0001) %MON vort_a_mean                  =  -6.5586096803907E-22
(PID.TID 0000.0001) %MON vort_a_sd                    =   1.5889649807104E-05
(PID.TID 0000.0001) %MON vort_p_mean                  =  -6.8228760045090E-22
(PID.TID 0000.0001) %MON vort_p_sd                    =   3.0669223294758E-05
(PID.TID 0000.0001) %MON surfExpan_theta_mean         =   4.0943927726452E-09
(PID.TID 0000.0001) %MON surfExpan_salt_mean          =   1.6750406018264E-20
(PID.TID 0000.0001) // =======================================================
(PID.TID 0000.0001) // End MONITOR dynamic field statistics
(PID.TID 0000.0001) // =======================================================
(PID.TID 0000.0001) // =======================================================
(PID.TID 0000.0001) // Begin MONITOR Therm.SeaIce statistics
(PID.TID 0000.0001) // =======================================================
(PID.TID 0000.0001) %MON thSI_time_sec                =   1.8000000000000E+04
(PID.TID 0000.0001) %MON thSI_Ice_Area_G              =   6.8841411594993E+10
(PID.TID 0000.0001) %MON thSI_Ice_Area_S              =   2.8885694560593E+10
(PID.TID 0000.0001) %MON thSI_Ice_Area_N              =   3.9955717034400E+10
(PID.TID 0000.0001) %MON thSI_IceH_ave_G              =   2.0184388253914E-01
(PID.TID 0000.0001) %MON thSI_IceH_ave_S              =   2.0420228608833E-01
(PID.TID 0000.0001) %MON thSI_IceH_ave_N              =   2.0013889187376E-01
(PID.TID 0000.0001) %MON thSI_IceH_max_S              =   3.7811577024197E-01
(PID.TID 0000.0001) %MON thSI_IceH_max_N              =   2.0280231008034E-01
(PID.TID 0000.0001) %MON thSI_SnwH_ave_G              =   0.0000000000000E+00
(PID.TID 0000.0001) %MON thSI_SnwH_ave_S              =   0.0000000000000E+00
(PID.TID 0000.0001) %MON thSI_SnwH_ave_N              =   0.0000000000000E+00
(PID.TID 0000.0001) %MON thSI_SnwH_max_S              =   0.0000000000000E+00
(PID.TID 0000.0001) %MON thSI_SnwH_max_N              =   0.0000000000000E+00
(PID.TID 0000.0001) %MON thSI_Tsrf_ave_G              =  -2.2611930851403E+00
(PID.TID 0000.0001) %MON thSI_Tsrf_ave_S              =  -2.2483945533695E+00
(PID.TID 0000.0001) %MON thSI_Tsrf_ave_N              =  -2.2704456904493E+00
(PID.TID 0000.0001) %MON thSI_Tsrf_min_S              =  -4.3940565377220E+00
(PID.TID 0000.0001) %MON thSI_Tsrf_min_N              =  -4.3934636136105E+00
(PID.TID 0000.0001) %MON thSI_Tsrf_max_S              =  -7.7482871383828E-02
(PID.TID 0000.0001) %MON thSI_Tsrf_max_N              =  -2.3599491809029E-01
(PID.TID 0000.0001) %MON thSI_Tic1_ave_G              =  -2.0394531016484E+00
(PID.TID 0000.0001) %MON thSI_Tic1_ave_S              =  -2.0427524553299E+00
(PID.TID 0000.0001) %MON thSI_Tic1_ave_N              =  -2.0370194306428E+00
(PID.TID 0000.0001) %MON thSI_Tic1_min_S              =  -3.2347614070142E+00
(PID.TID 0000.0001) %MON thSI_Tic1_min_N              =  -3.2336004210004E+00
(PID.TID 0000.0001) %MON thSI_Tic1_max_S              =  -1.0137553327077E+00
(PID.TID 0000.0001) %MON thSI_Tic1_max_N              =  -1.0828784414154E+00
(PID.TID 0000.0001) %MON thSI_Tic2_ave_G              =  -1.7436708232101E+00
(PID.TID 0000.0001) %MON thSI_Tic2_ave_S              =  -1.7457378210214E+00
(PID.TID 0000.0001) %MON thSI_Tic2_ave_N              =  -1.7421461631925E+00
(PID.TID 0000.0001) %MON thSI_Tic2_min_S              =  -2.0857949125973E+00
(PID.TID 0000.0001) %MON thSI_Tic2_min_N              =  -2.0857221738545E+00
(PID.TID 0000.0001) %MON thSI_Tic2_max_S              =  -3.8014136011543E-01
(PID.TID 0000.0001) %MON thSI_Tic2_max_N              =  -1.4657218049524E+00
(PID.TID 0000.0001) %MON thSI_TotEnerg_G              =  -4.1626727244359E+18
(PID.TID 0000.0001) // =======================================================
(PID.TID 0000.0001) // End MONITOR Therm.SeaIce statistics
(PID.TID 0000.0001) // =======================================================
(PID.TID 0000.0001) // =======================================================
(PID.TID 0000.0001) // Begin MONITOR dynamic field statistics
(PID.TID 0000.0001) // =======================================================
(PID.TID 0000.0001) %MON time_tsnumber                =                    11
(PID.TID 0000.0001) %MON time_secondsf                =   1.9800000000000E+04
(PID.TID 0000.0001) %MON dynstat_eta_max              =   0.0000000000000E+00
(PID.TID 0000.0001) %MON dynstat_eta_min              =   0.0000000000000E+00
(PID.TID 0000.0001) %MON dynstat_eta_mean             =   0.0000000000000E+00
(PID.TID 0000.0001) %MON dynstat_eta_sd               =   0.0000000000000E+00
(PID.TID 0000.0001) %MON dynstat_eta_del2             =   0.0000000000000E+00
(PID.TID 0000.0001) %MON dynstat_uvel_max             =   5.4694595665363E-01
(PID.TID 0000.0001) %MON dynstat_uvel_min             =   8.1797628424127E-02
(PID.TID 0000.0001) %MON dynstat_uvel_mean            =   3.2603530929361E-01
(PID.TID 0000.0001) %MON dynstat_uvel_sd              =   8.4661197148990E-02
(PID.TID 0000.0001) %MON dynstat_uvel_del2            =   1.3392731599312E-04
(PID.TID 0000.0001) %MON dynstat_vvel_max             =   2.2780617104059E-01
(PID.TID 0000.0001) %MON dynstat_vvel_min             =  -1.4793000868950E-01
(PID.TID 0000.0001) %MON dynstat_vvel_mean            =  -3.2450632095700E-04
(PID.TID 0000.0001) %MON dynstat_vvel_sd              =   6.0970835295293E-02
(PID.TID 0000.0001) %MON dynstat_vvel_del2            =   8.1836652323282E-05
(PID.TID 0000.0001) %MON dynstat_wvel_max             =   1.6555698845343E-04
(PID.TID 0000.0001) %MON dynstat_wvel_min             =  -2.4393468746960E-04
(PID.TID 0000.0001) %MON dynstat_wvel_mean            =  -1.8006686469634E-21
(PID.TID 0000.0001) %MON dynstat_wvel_sd              =   1.8006622332191E-05
(PID.TID 0000.0001) %MON dynstat_wvel_del2            =   3.4047422448573E-07
(PID.TID 0000.0001) %MON dynstat_theta_max            =  -1.6160340181356E+00
(PID.TID 0000.0001) %MON dynstat_theta_min            =  -1.6213826575393E+00
(PID.TID 0000.0001) %MON dynstat_theta_mean           =  -1.6163252514300E+00
(PID.TID 0000.0001) %MON dynstat_theta_sd             =   4.6770943699944E-04
(PID.TID 0000.0001) %MON dynstat_theta_del2           =   4.5804562548618E-06
(PID.TID 0000.0001) %MON dynstat_salt_max             =   3.0000000000000E+01
(PID.TID 0000.0001) %MON dynstat_salt_min             =   3.0000000000000E+01
(PID.TID 0000.0001) %MON dynstat_salt_mean            =   3.0000000000000E+01
(PID.TID 0000.0001) %MON dynstat_salt_sd              =   0.0000000000000E+00
(PID.TID 0000.0001) %MON dynstat_salt_del2            =   0.0000000000000E+00
(PID.TID 0000.0001) %MON advcfl_uvel_max              =   1.9690054439531E-01
(PID.TID 0000.0001) %MON advcfl_vvel_max              =   8.2010221574612E-02
(PID.TID 0000.0001) %MON advcfl_wvel_max              =   8.7816487489057E-02
(PID.TID 0000.0001) %MON advcfl_W_hf_max              =   0.0000000000000E+00
(PID.TID 0000.0001) %MON pe_b_mean                    =   0.0000000000000E+00
(PID.TID 0000.0001) %MON ke_max                       =   1.4564487757410E-01
(PID.TID 0000.0001) %MON ke_mean                      =   5.8130401708830E-02
(PID.TID 0000.0001) %MON ke_vol                       =   6.9500000000000E+11
(PID.TID 0000.0001) %MON vort_r_min                   =  -1.4191202448594E-04
(PID.TID 0000.0001) %MON vort_r_max                   =   8.9657385579761E-05
(PID.TID 0000.0001) %MON vort_a_mean                  =  -6.5586096803907E-22
(PID.TID 0000.0001) %MON vort_a_sd                    =   1.5889649807104E-05
(PID.TID 0000.0001) %MON vort_p_mean                  =  -6.8228760045090E-22
(PID.TID 0000.0001) %MON vort_p_sd                    =   3.0669223294758E-05
(PID.TID 0000.0001) %MON surfExpan_theta_mean         =   4.5932449623840E-09
(PID.TID 0000.0001) %MON surfExpan_salt_mean          =   1.6750406018264E-20
(PID.TID 0000.0001) // =======================================================
(PID.TID 0000.0001) // End MONITOR dynamic field statistics
(PID.TID 0000.0001) // =======================================================
(PID.TID 0000.0001) // =======================================================
(PID.TID 0000.0001) // Begin MONITOR Therm.SeaIce statistics
(PID.TID 0000.0001) // =======================================================
(PID.TID 0000.0001) %MON thSI_time_sec                =   1.9800000000000E+04
(PID.TID 0000.0001) %MON thSI_Ice_Area_G              =   6.8775941344546E+10
(PID.TID 0000.0001) %MON thSI_Ice_Area_S              =   2.8825937101078E+10
(PID.TID 0000.0001) %MON thSI_Ice_Area_N              =   3.9950004243468E+10
(PID.TID 0000.0001) %MON thSI_IceH_ave_G              =   2.0203581193256E-01
(PID.TID 0000.0001) %MON thSI_IceH_ave_S              =   2.0462652447835E-01
(PID.TID 0000.0001) %MON thSI_IceH_ave_N              =   2.0016648254684E-01
(PID.TID 0000.0001) %MON thSI_IceH_max_S              =   3.9042099817988E-01
(PID.TID 0000.0001) %MON thSI_IceH_max_N              =   2.0329987145539E-01
(PID.TID 0000.0001) %MON thSI_SnwH_ave_G              =   0.0000000000000E+00
(PID.TID 0000.0001) %MON thSI_SnwH_ave_S              =   0.0000000000000E+00
(PID.TID 0000.0001) %MON thSI_SnwH_ave_N              =   0.0000000000000E+00
(PID.TID 0000.0001) %MON thSI_SnwH_max_S              =   0.0000000000000E+00
(PID.TID 0000.0001) %MON thSI_SnwH_max_N              =   0.0000000000000E+00
(PID.TID 0000.0001) %MON thSI_Tsrf_ave_G              =  -2.2723762429111E+00
(PID.TID 0000.0001) %MON thSI_Tsrf_ave_S              =  -2.2584074142679E+00
(PID.TID 0000.0001) %MON thSI_Tsrf_ave_N              =  -2.2824554552534E+00
(PID.TID 0000.0001) %MON thSI_Tsrf_min_S              =  -4.4439498508948E+00
(PID.TID 0000.0001) %MON thSI_Tsrf_min_N              =  -4.4429002803918E+00
(PID.TID 0000.0001) %MON thSI_Tsrf_max_S              =  -5.6993796020374E-02
(PID.TID 0000.0001) %MON thSI_Tsrf_max_N              =  -2.2027502444134E-01
(PID.TID 0000.0001) %MON thSI_Tic1_ave_G              =  -2.0615703040142E+00
(PID.TID 0000.0001) %MON thSI_Tic1_ave_S              =  -2.0643532318753E+00
(PID.TID 0000.0001) %MON thSI_Tic1_ave_N              =  -2.0595175395355E+00
(PID.TID 0000.0001) %MON thSI_Tic1_min_S              =  -3.3286798645835E+00
(PID.TID 0000.0001) %MON thSI_Tic1_min_N              =  -3.3272720013669E+00
(PID.TID 0000.0001) %MON thSI_Tic1_max_S              =  -9.7186862445535E-01
(PID.TID 0000.0001) %MON thSI_Tic1_max_N              =  -1.0509837249349E+00
(PID.TID 0000.0001) %MON thSI_Tic2_ave_G              =  -1.7523674178647E+00
(PID.TID 0000.0001) %MON thSI_Tic2_ave_S              =  -1.7544695266319E+00
(PID.TID 0000.0001) %MON thSI_Tic2_ave_N              =  -1.7508168443597E+00
(PID.TID 0000.0001) %MON thSI_Tic2_min_S              =  -2.1233002460987E+00
(PID.TID 0000.0001) %MON thSI_Tic2_min_N              =  -2.1231950524510E+00
(PID.TID 0000.0001) %MON thSI_Tic2_max_S              =  -3.5953873095487E-01
(PID.TID 0000.0001) %MON thSI_Tic2_max_N              =  -1.4527687151314E+00
(PID.TID 0000.0001) %MON thSI_TotEnerg_G              =  -4.1626613015673E+18
(PID.TID 0000.0001) // =======================================================
(PID.TID 0000.0001) // End MONITOR Therm.SeaIce statistics
(PID.TID 0000.0001) // =======================================================
(PID.TID 0000.0001) // =======================================================
(PID.TID 0000.0001) // Begin MONITOR dynamic field statistics
(PID.TID 0000.0001) // =======================================================
(PID.TID 0000.0001) %MON time_tsnumber                =                    12
(PID.TID 0000.0001) %MON time_secondsf                =   2.1600000000000E+04
(PID.TID 0000.0001) %MON dynstat_eta_max              =   0.0000000000000E+00
(PID.TID 0000.0001) %MON dynstat_eta_min              =   0.0000000000000E+00
(PID.TID 0000.0001) %MON dynstat_eta_mean             =   0.0000000000000E+00
(PID.TID 0000.0001) %MON dynstat_eta_sd               =   0.0000000000000E+00
(PID.TID 0000.0001) %MON dynstat_eta_del2             =   0.0000000000000E+00
(PID.TID 0000.0001) %MON dynstat_uvel_max             =   5.4694595665363E-01
(PID.TID 0000.0001) %MON dynstat_uvel_min             =   8.1797628424127E-02
(PID.TID 0000.0001) %MON dynstat_uvel_mean            =   3.2603530929361E-01
(PID.TID 0000.0001) %MON dynstat_uvel_sd              =   8.4661197148990E-02
(PID.TID 0000.0001) %MON dynstat_uvel_del2            =   1.3392731599312E-04
(PID.TID 0000.0001) %MON dynstat_vvel_max             =   2.2780617104059E-01
(PID.TID 0000.0001) %MON dynstat_vvel_min             =  -1.4793000868950E-01
(PID.TID 0000.0001) %MON dynstat_vvel_mean            =  -3.2450632095700E-04
(PID.TID 0000.0001) %MON dynstat_vvel_sd              =   6.0970835295293E-02
(PID.TID 0000.0001) %MON dynstat_vvel_del2            =   8.1836652323282E-05
(PID.TID 0000.0001) %MON dynstat_wvel_max             =   1.6555698845343E-04
(PID.TID 0000.0001) %MON dynstat_wvel_min             =  -2.4393468746960E-04
(PID.TID 0000.0001) %MON dynstat_wvel_mean            =  -1.8006686469634E-21
(PID.TID 0000.0001) %MON dynstat_wvel_sd              =   1.8006622332191E-05
(PID.TID 0000.0001) %MON dynstat_wvel_del2            =   3.4047422448573E-07
(PID.TID 0000.0001) %MON dynstat_theta_max            =  -1.6157041428222E+00
(PID.TID 0000.0001) %MON dynstat_theta_min            =  -1.6214932378932E+00
(PID.TID 0000.0001) %MON dynstat_theta_mean           =  -1.6160472662079E+00
(PID.TID 0000.0001) %MON dynstat_theta_sd             =   5.3106409857822E-04
(PID.TID 0000.0001) %MON dynstat_theta_del2           =   6.3054265343565E-06
(PID.TID 0000.0001) %MON dynstat_salt_max             =   3.0000000000000E+01
(PID.TID 0000.0001) %MON dynstat_salt_min             =   3.0000000000000E+01
(PID.TID 0000.0001) %MON dynstat_salt_mean            =   3.0000000000000E+01
(PID.TID 0000.0001) %MON dynstat_salt_sd              =   0.0000000000000E+00
(PID.TID 0000.0001) %MON dynstat_salt_del2            =   0.0000000000000E+00
(PID.TID 0000.0001) %MON advcfl_uvel_max              =   1.9690054439531E-01
(PID.TID 0000.0001) %MON advcfl_vvel_max              =   8.2010221574612E-02
(PID.TID 0000.0001) %MON advcfl_wvel_max              =   8.7816487489057E-02
(PID.TID 0000.0001) %MON advcfl_W_hf_max              =   0.0000000000000E+00
(PID.TID 0000.0001) %MON pe_b_mean                    =   0.0000000000000E+00
(PID.TID 0000.0001) %MON ke_max                       =   1.4564487757410E-01
(PID.TID 0000.0001) %MON ke_mean                      =   5.8130401708830E-02
(PID.TID 0000.0001) %MON ke_vol                       =   6.9500000000000E+11
(PID.TID 0000.0001) %MON vort_r_min                   =  -1.4191202448594E-04
(PID.TID 0000.0001) %MON vort_r_max                   =   8.9657385579761E-05
(PID.TID 0000.0001) %MON vort_a_mean                  =  -6.5586096803907E-22
(PID.TID 0000.0001) %MON vort_a_sd                    =   1.5889649807104E-05
(PID.TID 0000.0001) %MON vort_p_mean                  =  -6.8228760045090E-22
(PID.TID 0000.0001) %MON vort_p_sd                    =   3.0669223294758E-05
(PID.TID 0000.0001) %MON surfExpan_theta_mean         =   5.0953638032735E-09
(PID.TID 0000.0001) %MON surfExpan_salt_mean          =   1.6750406018264E-20
(PID.TID 0000.0001) // =======================================================
(PID.TID 0000.0001) // End MONITOR dynamic field statistics
(PID.TID 0000.0001) // =======================================================
(PID.TID 0000.0001) // =======================================================
(PID.TID 0000.0001) // Begin MONITOR SEAICE statistics
(PID.TID 0000.0001) // =======================================================
(PID.TID 0000.0001) %MON seaice_tsnumber              =                    12
(PID.TID 0000.0001) %MON seaice_time_sec              =   2.1600000000000E+04
(PID.TID 0000.0001) %MON seaice_uice_max              =   7.0085727408107E-01
(PID.TID 0000.0001) %MON seaice_uice_min              =   1.5904822854946E-01
(PID.TID 0000.0001) %MON seaice_uice_mean             =   5.3159661332811E-01
(PID.TID 0000.0001) %MON seaice_uice_sd               =   8.4593217425861E-02
(PID.TID 0000.0001) %MON seaice_uice_del2             =   1.6642206853078E-04
(PID.TID 0000.0001) %MON seaice_vice_max              =   2.0745910434639E-01
(PID.TID 0000.0001) %MON seaice_vice_min              =  -1.4900292276580E-01
(PID.TID 0000.0001) %MON seaice_vice_mean             =  -2.2775797066349E-04
(PID.TID 0000.0001) %MON seaice_vice_sd               =   5.8053286807560E-02
(PID.TID 0000.0001) %MON seaice_vice_del2             =   1.3730622550944E-04
(PID.TID 0000.0001) %MON seaice_area_max              =   1.0000000000000E+00
(PID.TID 0000.0001) %MON seaice_area_min              =   2.0201438560701E-01
(PID.TID 0000.0001) %MON seaice_area_mean             =   9.8958188984958E-01
(PID.TID 0000.0001) %MON seaice_area_sd               =   5.9962165205531E-02
(PID.TID 0000.0001) %MON seaice_area_del2             =   5.6271094116322E-04
(PID.TID 0000.0001) %MON seaice_heff_max              =   3.9041589233142E-01
(PID.TID 0000.0001) %MON seaice_heff_min              =   4.0482963972499E-02
(PID.TID 0000.0001) %MON seaice_heff_mean             =   1.9993098058952E-01
(PID.TID 0000.0001) %MON seaice_heff_sd               =   1.7591701820921E-02
(PID.TID 0000.0001) %MON seaice_heff_del2             =   1.8063574303037E-04
(PID.TID 0000.0001) %MON seaice_hsnow_max             =   0.0000000000000E+00
(PID.TID 0000.0001) %MON seaice_hsnow_min             =   0.0000000000000E+00
(PID.TID 0000.0001) %MON seaice_hsnow_mean            =   0.0000000000000E+00
(PID.TID 0000.0001) %MON seaice_hsnow_sd              =   0.0000000000000E+00
(PID.TID 0000.0001) %MON seaice_hsnow_del2            =   0.0000000000000E+00
(PID.TID 0000.0001) // =======================================================
(PID.TID 0000.0001) // End MONITOR SEAICE statistics
(PID.TID 0000.0001) // =======================================================
(PID.TID 0000.0001) // =======================================================
(PID.TID 0000.0001) // Begin MONITOR Therm.SeaIce statistics
(PID.TID 0000.0001) // =======================================================
(PID.TID 0000.0001) %MON thSI_time_sec                =   2.1600000000000E+04
(PID.TID 0000.0001) %MON thSI_Ice_Area_G              =   6.8710396745125E+10
(PID.TID 0000.0001) %MON thSI_Ice_Area_S              =   2.8766320460679E+10
(PID.TID 0000.0001) %MON thSI_Ice_Area_N              =   3.9944076284446E+10
(PID.TID 0000.0001) %MON thSI_IceH_ave_G              =   2.0222938890949E-01
(PID.TID 0000.0001) %MON thSI_IceH_ave_S              =   2.0505245843368E-01
(PID.TID 0000.0001) %MON thSI_IceH_ave_N              =   2.0019631341572E-01
(PID.TID 0000.0001) %MON thSI_IceH_max_S              =   4.0198878454853E-01
(PID.TID 0000.0001) %MON thSI_IceH_max_N              =   2.0380787156371E-01
(PID.TID 0000.0001) %MON thSI_SnwH_ave_G              =   0.0000000000000E+00
(PID.TID 0000.0001) %MON thSI_SnwH_ave_S              =   0.0000000000000E+00
(PID.TID 0000.0001) %MON thSI_SnwH_ave_N              =   0.0000000000000E+00
(PID.TID 0000.0001) %MON thSI_SnwH_max_S              =   0.0000000000000E+00
(PID.TID 0000.0001) %MON thSI_SnwH_max_N              =   0.0000000000000E+00
(PID.TID 0000.0001) %MON thSI_Tsrf_ave_G              =  -2.2819765227740E+00
(PID.TID 0000.0001) %MON thSI_Tsrf_ave_S              =  -2.2667281857303E+00
(PID.TID 0000.0001) %MON thSI_Tsrf_ave_N              =  -2.2929578394221E+00
(PID.TID 0000.0001) %MON thSI_Tsrf_min_S              =  -4.4877566303269E+00
(PID.TID 0000.0001) %MON thSI_Tsrf_min_N              =  -4.4862711637646E+00
(PID.TID 0000.0001) %MON thSI_Tsrf_max_S              =  -3.8759510952765E-02
(PID.TID 0000.0001) %MON thSI_Tsrf_max_N              =  -2.0586396955099E-01
(PID.TID 0000.0001) %MON thSI_Tic1_ave_G              =  -2.0806637422118E+00
(PID.TID 0000.0001) %MON thSI_Tic1_ave_S              =  -2.0827019487209E+00
(PID.TID 0000.0001) %MON thSI_Tic1_ave_N              =  -2.0791602921032E+00
(PID.TID 0000.0001) %MON thSI_Tic1_min_S              =  -3.4108841144463E+00
(PID.TID 0000.0001) %MON thSI_Tic1_min_N              =  -3.4092439400103E+00
(PID.TID 0000.0001) %MON thSI_Tic1_max_S              =  -9.3337931573189E-01
(PID.TID 0000.0001) %MON thSI_Tic1_max_N              =  -1.0217257776117E+00
(PID.TID 0000.0001) %MON thSI_Tic2_ave_G              =  -1.7602033460699E+00
(PID.TID 0000.0001) %MON thSI_Tic2_ave_S              =  -1.7622610013783E+00
(PID.TID 0000.0001) %MON thSI_Tic2_ave_N              =  -1.7586855498687E+00
(PID.TID 0000.0001) %MON thSI_Tic2_min_S              =  -2.1570215079196E+00
(PID.TID 0000.0001) %MON thSI_Tic2_min_N              =  -2.1568769547103E+00
(PID.TID 0000.0001) %MON thSI_Tic2_max_S              =  -3.4178883181588E-01
(PID.TID 0000.0001) %MON thSI_Tic2_max_N              =  -1.4409940464065E+00
(PID.TID 0000.0001) %MON thSI_TotEnerg_G              =  -4.1625805617437E+18
(PID.TID 0000.0001) // =======================================================
(PID.TID 0000.0001) // End MONITOR Therm.SeaIce statistics
(PID.TID 0000.0001) // =======================================================
 Computing Diagnostic #    140  SI_Fract     Counter:      12   Parms: SM P    M1      
 Computing Diagnostic #    141  SI_Thick     Counter:      12   Parms: SM PC   M1      
       use Counter Mate for  SI_Thick     Diagnostic #    140  SI_Fract
 Computing Diagnostic #     26  THETA        Counter:      12   Parms: SMR     MR      
 Computing Diagnostic #    143  SI_Tsrf      Counter:      12   Parms: SM  C   M1      
       use Counter Mate for  SI_Tsrf      Diagnostic #    140  SI_Fract
 Computing Diagnostic #    154  SIflx2oc     Counter:      12   Parms: SM      M1      
 Computing Diagnostic #    155  SIfrw2oc     Counter:      12   Parms: SM      M1      
 Computing Diagnostic #    156  SIsaltFx     Counter:      12   Parms: SM      M1      
 Computing Diagnostic #    152  SIflxAtm     Counter:      12   Parms: SM      M1      
 Computing Diagnostic #    153  SIfrwAtm     Counter:      12   Parms: SM      M1      
 Computing Diagnostic #    183  SIuice       Counter:      12   Parms: UU      M1      
           Vector  Mate for  SIuice       Diagnostic #    184  SIvice   exists 
 Computing Diagnostic #    184  SIvice       Counter:      12   Parms: VV      M1      
           Vector  Mate for  SIvice       Diagnostic #    183  SIuice   exists 
 Compute Stats, Diag. #    140  SI_Fract  vol(   0 ): 2.085E+11  Parms: SM P    M1      
 Compute Stats, Diag. #    141  SI_Thick  vol(   0 ): 2.065E+11  Parms: SM PC   M1      
    use Counter Mate  #    140  SI_Fract  vol(   0 ): 2.085E+11 integral 2.065E+11
 Compute Stats, Diag. #     26  THETA     vol(   0 ): 2.085E+12  Parms: SMR     MR      
 Compute Stats, Diag. #    143  SI_Tsrf   vol(   0 ): 2.065E+11  Parms: SM  C   M1      
    use Counter Mate  #    140  SI_Fract  vol(   0 ): 2.085E+11 integral 2.065E+11
 Compute Stats, Diag. #    144  SI_Tice1  vol(   0 ): 2.065E+11  Parms: SM  C   M1      
    use Counter Mate  #    140  SI_Fract  vol(   0 ): 2.085E+11 integral 2.065E+11
 Compute Stats, Diag. #    145  SI_Tice2  vol(   0 ): 2.065E+11  Parms: SM  C   M1      
    use Counter Mate  #    140  SI_Fract  vol(   0 ): 2.085E+11 integral 2.065E+11
 Compute Stats, Diag. #    154  SIflx2oc  vol(   0 ): 2.085E+11  Parms: SM      M1      
 Compute Stats, Diag. #    155  SIfrw2oc  vol(   0 ): 2.085E+11  Parms: SM      M1      
 Compute Stats, Diag. #    156  SIsaltFx  vol(   0 ): 2.085E+11  Parms: SM      M1      
 Compute Stats, Diag. #    152  SIflxAtm  vol(   0 ): 2.085E+11  Parms: SM      M1      
 Compute Stats, Diag. #    153  SIfrwAtm  vol(   0 ): 2.085E+11  Parms: SM      M1      
 Compute Stats, Diag. #    142  SI_SnowH  vol(   0 ): 2.065E+11  Parms: SM PC   M1      
    use Counter Mate  #    140  SI_Fract  vol(   0 ): 2.085E+11 integral 2.065E+11
 Compute Stats, Diag. #    183  SIuice    vol(   0 ): 2.070E+11  Parms: UU      M1      
 Compute Stats, Diag. #    184  SIvice    vol(   0 ): 2.025E+11  Parms: VV      M1      
(PID.TID 0000.0001) DIAGSTATS_CLOSE_IO: close file: iceStDiag.0000000000.txt , unit=     9
(PID.TID 0000.0001) %CHECKPOINT        12 ckptA
(PID.TID 0000.0001)   Seconds in section "ALL                    [THE_MODEL_MAIN]":
(PID.TID 0000.0001)           User time:   49.170000000000002
(PID.TID 0000.0001)         System time:  5.00000000000000028E-002
(PID.TID 0000.0001)     Wall clock time:   49.408210992813110
(PID.TID 0000.0001)          No. starts:           1
(PID.TID 0000.0001)           No. stops:           1
(PID.TID 0000.0001)   Seconds in section "INITIALISE_FIXED       [THE_MODEL_MAIN]":
(PID.TID 0000.0001)           User time:  4.00000000000000008E-002
(PID.TID 0000.0001)         System time:   0.0000000000000000
(PID.TID 0000.0001)     Wall clock time:  7.24089145660400391E-002
(PID.TID 0000.0001)          No. starts:           1
(PID.TID 0000.0001)           No. stops:           1
(PID.TID 0000.0001)   Seconds in section "THE_MAIN_LOOP          [THE_MODEL_MAIN]":
(PID.TID 0000.0001)           User time:   49.130000000000003
(PID.TID 0000.0001)         System time:  5.00000000000000028E-002
(PID.TID 0000.0001)     Wall clock time:   49.335767984390259
(PID.TID 0000.0001)          No. starts:           1
(PID.TID 0000.0001)           No. stops:           1
(PID.TID 0000.0001)   Seconds in section "INITIALISE_VARIA    [THE_MAIN_LOOP]":
(PID.TID 0000.0001)           User time:  4.00000000000000008E-002
(PID.TID 0000.0001)         System time:   0.0000000000000000
(PID.TID 0000.0001)     Wall clock time:  6.10709190368652344E-002
(PID.TID 0000.0001)          No. starts:           1
(PID.TID 0000.0001)           No. stops:           1
(PID.TID 0000.0001)   Seconds in section "MAIN LOOP           [THE_MAIN_LOOP]":
(PID.TID 0000.0001)           User time:   49.090000000000003
(PID.TID 0000.0001)         System time:  5.00000000000000028E-002
(PID.TID 0000.0001)     Wall clock time:   49.274665117263794
(PID.TID 0000.0001)          No. starts:           1
(PID.TID 0000.0001)           No. stops:           1
(PID.TID 0000.0001)   Seconds in section "FORWARD_STEP        [THE_MAIN_LOOP]":
(PID.TID 0000.0001)           User time:   49.090000000000003
(PID.TID 0000.0001)         System time:  5.00000000000000028E-002
(PID.TID 0000.0001)     Wall clock time:   49.274538040161133
(PID.TID 0000.0001)          No. starts:          12
(PID.TID 0000.0001)           No. stops:          12
(PID.TID 0000.0001)   Seconds in section "DO_STATEVARS_DIAGS  [FORWARD_STEP]":
(PID.TID 0000.0001)           User time:  1.00000000000051159E-002
(PID.TID 0000.0001)         System time:   0.0000000000000000
(PID.TID 0000.0001)     Wall clock time:  2.45037078857421875E-002
(PID.TID 0000.0001)          No. starts:          36
(PID.TID 0000.0001)           No. stops:          36
(PID.TID 0000.0001)   Seconds in section "LOAD_FIELDS_DRIVER  [FORWARD_STEP]":
(PID.TID 0000.0001)           User time:  0.12999999999999545
(PID.TID 0000.0001)         System time:  9.99999999999999500E-003
(PID.TID 0000.0001)     Wall clock time:  0.14659404754638672
(PID.TID 0000.0001)          No. starts:          12
(PID.TID 0000.0001)           No. stops:          12
(PID.TID 0000.0001)   Seconds in section "EXF_GETFORCING     [LOAD_FLDS_DRIVER]":
(PID.TID 0000.0001)           User time:  0.12999999999999545
(PID.TID 0000.0001)         System time:  9.99999999999999500E-003
(PID.TID 0000.0001)     Wall clock time:  0.14610433578491211
(PID.TID 0000.0001)          No. starts:          12
(PID.TID 0000.0001)           No. stops:          12
(PID.TID 0000.0001)   Seconds in section "EXTERNAL_FLDS_LOAD [LOAD_FLDS_DRIVER]":
(PID.TID 0000.0001)           User time:   0.0000000000000000
(PID.TID 0000.0001)         System time:   0.0000000000000000
(PID.TID 0000.0001)     Wall clock time:  1.24931335449218750E-004
(PID.TID 0000.0001)          No. starts:          12
(PID.TID 0000.0001)           No. stops:          12
(PID.TID 0000.0001)   Seconds in section "DO_ATMOSPHERIC_PHYS [FORWARD_STEP]":
(PID.TID 0000.0001)           User time:   0.0000000000000000
(PID.TID 0000.0001)         System time:   0.0000000000000000
(PID.TID 0000.0001)     Wall clock time:  1.14917755126953125E-004
(PID.TID 0000.0001)          No. starts:          12
(PID.TID 0000.0001)           No. stops:          12
(PID.TID 0000.0001)   Seconds in section "DO_OCEANIC_PHYS     [FORWARD_STEP]":
(PID.TID 0000.0001)           User time:   48.690000000000019
(PID.TID 0000.0001)         System time:  4.00000000000000216E-002
(PID.TID 0000.0001)     Wall clock time:   48.866618871688843
(PID.TID 0000.0001)          No. starts:          12
(PID.TID 0000.0001)           No. stops:          12
(PID.TID 0000.0001)   Seconds in section "SEAICE_MODEL    [DO_OCEANIC_PHYS]":
(PID.TID 0000.0001)           User time:   48.380000000000017
(PID.TID 0000.0001)         System time:  4.00000000000000216E-002
(PID.TID 0000.0001)     Wall clock time:   48.542117357254028
(PID.TID 0000.0001)          No. starts:          12
(PID.TID 0000.0001)           No. stops:          12
(PID.TID 0000.0001)   Seconds in section "SEAICE_DYNSOLVER   [SEAICE_MODEL]":
(PID.TID 0000.0001)           User time:   48.370000000000026
(PID.TID 0000.0001)         System time:  4.00000000000000216E-002
(PID.TID 0000.0001)     Wall clock time:   48.537305593490601
(PID.TID 0000.0001)          No. starts:          12
(PID.TID 0000.0001)           No. stops:          12
(PID.TID 0000.0001)   Seconds in section "THSICE_MAIN     [DO_OCEANIC_PHYS]":
(PID.TID 0000.0001)           User time:  0.31000000000001648
(PID.TID 0000.0001)         System time:   0.0000000000000000
(PID.TID 0000.0001)     Wall clock time:  0.30152606964111328
(PID.TID 0000.0001)          No. starts:          12
(PID.TID 0000.0001)           No. stops:          12
(PID.TID 0000.0001)   Seconds in section "BLOCKING_EXCHANGES  [FORWARD_STEP]":
(PID.TID 0000.0001)           User time:  9.99999999999801048E-003
(PID.TID 0000.0001)         System time:   0.0000000000000000
(PID.TID 0000.0001)     Wall clock time:  4.82225418090820313E-003
(PID.TID 0000.0001)          No. starts:          24
(PID.TID 0000.0001)           No. stops:          24
(PID.TID 0000.0001)   Seconds in section "THERMODYNAMICS      [FORWARD_STEP]":
(PID.TID 0000.0001)           User time:  6.99999999999931788E-002
(PID.TID 0000.0001)         System time:   0.0000000000000000
(PID.TID 0000.0001)     Wall clock time:  4.82857227325439453E-002
(PID.TID 0000.0001)          No. starts:          12
(PID.TID 0000.0001)           No. stops:          12
(PID.TID 0000.0001)   Seconds in section "TRC_CORRECTION_STEP [FORWARD_STEP]":
(PID.TID 0000.0001)           User time:   0.0000000000000000
(PID.TID 0000.0001)         System time:   0.0000000000000000
(PID.TID 0000.0001)     Wall clock time:  1.48653984069824219E-003
(PID.TID 0000.0001)          No. starts:          12
(PID.TID 0000.0001)           No. stops:          12
(PID.TID 0000.0001)   Seconds in section "MONITOR             [FORWARD_STEP]":
(PID.TID 0000.0001)           User time:  8.99999999999891998E-002
(PID.TID 0000.0001)         System time:   0.0000000000000000
(PID.TID 0000.0001)     Wall clock time:  9.37550067901611328E-002
(PID.TID 0000.0001)          No. starts:          12
(PID.TID 0000.0001)           No. stops:          12
(PID.TID 0000.0001)   Seconds in section "DO_THE_MODEL_IO     [FORWARD_STEP]":
(PID.TID 0000.0001)           User time:  8.99999999999963052E-002
(PID.TID 0000.0001)         System time:   0.0000000000000000
(PID.TID 0000.0001)     Wall clock time:  7.97388553619384766E-002
(PID.TID 0000.0001)          No. starts:          12
(PID.TID 0000.0001)           No. stops:          12
(PID.TID 0000.0001)   Seconds in section "DO_WRITE_PICKUP     [FORWARD_STEP]":
(PID.TID 0000.0001)           User time:   0.0000000000000000
(PID.TID 0000.0001)         System time:   0.0000000000000000
(PID.TID 0000.0001)     Wall clock time:  6.92081451416015625E-003
(PID.TID 0000.0001)          No. starts:          12
(PID.TID 0000.0001)           No. stops:          12
(PID.TID 0000.0001) // ======================================================
(PID.TID 0000.0001) // Tile <-> Tile communication statistics
(PID.TID 0000.0001) // ======================================================
(PID.TID 0000.0001) // o Tile number: 000001
(PID.TID 0000.0001) //         No. X exchanges =              0
(PID.TID 0000.0001) //            Max. X spins =              0
(PID.TID 0000.0001) //            Min. X spins =     1000000000
(PID.TID 0000.0001) //          Total. X spins =              0
(PID.TID 0000.0001) //            Avg. X spins =       0.00E+00
(PID.TID 0000.0001) //         No. Y exchanges =              0
(PID.TID 0000.0001) //            Max. Y spins =              0
(PID.TID 0000.0001) //            Min. Y spins =     1000000000
(PID.TID 0000.0001) //          Total. Y spins =              0
(PID.TID 0000.0001) //            Avg. Y spins =       0.00E+00
(PID.TID 0000.0001) // o Tile number: 000002
(PID.TID 0000.0001) //         No. X exchanges =              0
(PID.TID 0000.0001) //            Max. X spins =              0
(PID.TID 0000.0001) //            Min. X spins =     1000000000
(PID.TID 0000.0001) //          Total. X spins =              0
(PID.TID 0000.0001) //            Avg. X spins =       0.00E+00
(PID.TID 0000.0001) //         No. Y exchanges =              0
(PID.TID 0000.0001) //            Max. Y spins =              0
(PID.TID 0000.0001) //            Min. Y spins =     1000000000
(PID.TID 0000.0001) //          Total. Y spins =              0
(PID.TID 0000.0001) //            Avg. Y spins =       0.00E+00
(PID.TID 0000.0001) // o Tile number: 000003
(PID.TID 0000.0001) //         No. X exchanges =              0
(PID.TID 0000.0001) //            Max. X spins =              0
(PID.TID 0000.0001) //            Min. X spins =     1000000000
(PID.TID 0000.0001) //          Total. X spins =              0
(PID.TID 0000.0001) //            Avg. X spins =       0.00E+00
(PID.TID 0000.0001) //         No. Y exchanges =              0
(PID.TID 0000.0001) //            Max. Y spins =              0
(PID.TID 0000.0001) //            Min. Y spins =     1000000000
(PID.TID 0000.0001) //          Total. Y spins =              0
(PID.TID 0000.0001) //            Avg. Y spins =       0.00E+00
(PID.TID 0000.0001) // o Tile number: 000004
(PID.TID 0000.0001) //         No. X exchanges =              0
(PID.TID 0000.0001) //            Max. X spins =              0
(PID.TID 0000.0001) //            Min. X spins =     1000000000
(PID.TID 0000.0001) //          Total. X spins =              0
(PID.TID 0000.0001) //            Avg. X spins =       0.00E+00
(PID.TID 0000.0001) //         No. Y exchanges =              0
(PID.TID 0000.0001) //            Max. Y spins =              0
(PID.TID 0000.0001) //            Min. Y spins =     1000000000
(PID.TID 0000.0001) //          Total. Y spins =              0
(PID.TID 0000.0001) //            Avg. Y spins =       0.00E+00
(PID.TID 0000.0001) // o Thread number: 000001
(PID.TID 0000.0001) //            No. barriers =          49878
(PID.TID 0000.0001) //      Max. barrier spins =              1
(PID.TID 0000.0001) //      Min. barrier spins =              1
(PID.TID 0000.0001) //     Total barrier spins =          49878
(PID.TID 0000.0001) //      Avg. barrier spins =       1.00E+00
PROGRAM MAIN: Execution ended Normally
