(PID.TID 0000.0001) 
(PID.TID 0000.0001) // ======================================================
(PID.TID 0000.0001) //                      MITgcm UV
(PID.TID 0000.0001) //                      =========
(PID.TID 0000.0001) // ======================================================
(PID.TID 0000.0001) // execution environment starting up...
(PID.TID 0000.0001) 
(PID.TID 0000.0001) // MITgcmUV version:  checkpoint61n
(PID.TID 0000.0001) // Build user:        jahn
(PID.TID 0000.0001) // Build host:        rilke.csail.mit.edu
(PID.TID 0000.0001) // Build date:        Tue May 26 17:30:16 EDT 2009
(PID.TID 0000.0001) 
(PID.TID 0000.0001) // =======================================================
(PID.TID 0000.0001) // Execution Environment parameter file "eedata"
(PID.TID 0000.0001) // =======================================================
(PID.TID 0000.0001) ># Example "eedata" file
(PID.TID 0000.0001) ># Lines beginning "#" are comments
(PID.TID 0000.0001) ># nTx - No. threads per process in X
(PID.TID 0000.0001) ># nTy - No. threads per process in Y
(PID.TID 0000.0001) > &EEPARMS
(PID.TID 0000.0001) > nTx=1,
(PID.TID 0000.0001) > nTy=1,
(PID.TID 0000.0001) > /
(PID.TID 0000.0001) ># Note: Some systems use & as the
(PID.TID 0000.0001) ># namelist terminator. Other systems
(PID.TID 0000.0001) ># use a / character (as shown here).
(PID.TID 0000.0001) 
(PID.TID 0000.0001) // =======================================================
(PID.TID 0000.0001) // Computational Grid Specification ( see files "SIZE.h" )
(PID.TID 0000.0001) //                                  ( and "eedata"       )
(PID.TID 0000.0001) // =======================================================
(PID.TID 0000.0001)      nPx =    1 ; /* No. processes in X */
(PID.TID 0000.0001)      nPy =    1 ; /* No. processes in Y */
(PID.TID 0000.0001)      nSx =    2 ; /* No. tiles in X per process */
(PID.TID 0000.0001)      nSy =    1 ; /* No. tiles in Y per process */
(PID.TID 0000.0001)      sNx =   10 ; /* Tile size in X */
(PID.TID 0000.0001)      sNy =   16 ; /* Tile size in Y */
(PID.TID 0000.0001)      OLx =    4 ; /* Tile overlap distance in X */
(PID.TID 0000.0001)      OLy =    4 ; /* Tile overlap distance in Y */
(PID.TID 0000.0001)      nTx =    1 ; /* No. threads in X per process */
(PID.TID 0000.0001)      nTy =    1 ; /* No. threads in Y per process */
(PID.TID 0000.0001)       Nr =   23 ; /* No. levels in the vertical   */
(PID.TID 0000.0001)       Nx =   20 ; /* Total domain size in X ( = nPx*nSx*sNx ) */
(PID.TID 0000.0001)       Ny =   16 ; /* Total domain size in Y ( = nPy*nSy*sNy ) */
(PID.TID 0000.0001)   nTiles =    2 ; /* Total no. tiles per process ( = nSx*nSy ) */
(PID.TID 0000.0001)   nProcs =    1 ; /* Total no. processes ( = nPx*nPy ) */
(PID.TID 0000.0001) nThreads =    1 ; /* Total no. threads per process ( = nTx*nTy ) */
(PID.TID 0000.0001) usingMPI =    F ; /* Flag used to control whether MPI is in use */
(PID.TID 0000.0001)                   /*  note: To execute a program with MPI calls */
(PID.TID 0000.0001)                   /*  it must be launched appropriately e.g     */
(PID.TID 0000.0001)                   /*  "mpirun -np 64 ......"                    */
(PID.TID 0000.0001) useCoupler=    F ;/* Flag used to control communications with   */
(PID.TID 0000.0001)                   /*  other model components, through a coupler */
(PID.TID 0000.0001) printMapIncludesZeros=    F ; /* print zeros in Std.Output maps */
(PID.TID 0000.0001) maxLengthPrt1D=   65 /* maxLength of 1D array printed to StdOut */
(PID.TID 0000.0001) 
(PID.TID 0000.0001) // ======================================================
(PID.TID 0000.0001) // Mapping of tiles to threads
(PID.TID 0000.0001) // ======================================================
(PID.TID 0000.0001) // -o- Thread   1, tiles (   1:   2,   1:   1)
(PID.TID 0000.0001) 
(PID.TID 0000.0001) // ======================================================
(PID.TID 0000.0001) // Tile <-> Tile connectvity table
(PID.TID 0000.0001) // ======================================================
(PID.TID 0000.0001) // Tile number: 000001 (process no. = 000001)
(PID.TID 0000.0001) //        WEST: Tile = 000002, Process = 000001, Comm = put
(PID.TID 0000.0001) //                bi = 000002, bj = 000001
(PID.TID 0000.0001) //        EAST: Tile = 000002, Process = 000001, Comm = put
(PID.TID 0000.0001) //                bi = 000002, bj = 000001
(PID.TID 0000.0001) //       SOUTH: Tile = 000001, Process = 000001, Comm = put
(PID.TID 0000.0001) //                bi = 000001, bj = 000001
(PID.TID 0000.0001) //       NORTH: Tile = 000001, Process = 000001, Comm = put
(PID.TID 0000.0001) //                bi = 000001, bj = 000001
(PID.TID 0000.0001) // Tile number: 000002 (process no. = 000001)
(PID.TID 0000.0001) //        WEST: Tile = 000001, Process = 000001, Comm = put
(PID.TID 0000.0001) //                bi = 000001, bj = 000001
(PID.TID 0000.0001) //        EAST: Tile = 000001, Process = 000001, Comm = put
(PID.TID 0000.0001) //                bi = 000001, bj = 000001
(PID.TID 0000.0001) //       SOUTH: Tile = 000002, Process = 000001, Comm = put
(PID.TID 0000.0001) //                bi = 000002, bj = 000001
(PID.TID 0000.0001) //       NORTH: Tile = 000002, Process = 000001, Comm = put
(PID.TID 0000.0001) //                bi = 000002, bj = 000001
(PID.TID 0000.0001) 
(PID.TID 0000.0001) // =======================================================
(PID.TID 0000.0001) // Model parameter file "data"
(PID.TID 0000.0001) // =======================================================
(PID.TID 0000.0001) ># ====================
(PID.TID 0000.0001) ># | Model parameters |
(PID.TID 0000.0001) ># ====================
(PID.TID 0000.0001) >#
(PID.TID 0000.0001) ># Continuous equation parameters
(PID.TID 0000.0001) >#
(PID.TID 0000.0001) >#   tRef            - Reference vertical potential temperature          (deg C)
(PID.TID 0000.0001) >#   sRef            - Reference vertical salinity                         (PSU)
(PID.TID 0000.0001) >#   viscAh          - Horizontal eddy viscosity coefficient             (m^2/s)
(PID.TID 0000.0001) >#   viscAz          - Vertical eddy viscosity coefficient               (m^2/s)
(PID.TID 0000.0001) >#   diffKhT         - Horizontal temperature diffusivity                (m^2/s)
(PID.TID 0000.0001) >#   diffKzT         - Vertical temperature diffusivity                  (m^2/s)
(PID.TID 0000.0001) >#   diffKhS         - Horizontal salt diffusivity                       (m^2/s)
(PID.TID 0000.0001) >#   diffKzS         - Vertical salt diffusivity                         (m^2/s)
(PID.TID 0000.0001) >#   tAlpha          - Linear EOS thermal expansion coefficient           (1/oC)
(PID.TID 0000.0001) >#   sBeta           - Linear EOS haline contraction coefficient         (1/ppt)
(PID.TID 0000.0001) >#   gravity         - Acceleration due to gravity                       (m/s^2)
(PID.TID 0000.0001) >#   rigidLid        - Set to true to use rigid lid
(PID.TID 0000.0001) >#   implicitFreeSurface - Set to true to use implicit free surface
(PID.TID 0000.0001) >#   eosType         - Flag for linear or polynomial equation of state
(PID.TID 0000.0001) >#   GMkbackground   - background value of GM/Redi coefficient
(PID.TID 0000.0001) >#   momAdvection    - On/Off flag for momentum self transport
(PID.TID 0000.0001) >#   momViscosity    - On/Off flag for momentum mixing
(PID.TID 0000.0001) >#
(PID.TID 0000.0001) > &PARM01
(PID.TID 0000.0001) > viscAz             = 1.E-3,
(PID.TID 0000.0001) > diffKzT            = 1.E-5,
(PID.TID 0000.0001) > diffKzS            = 1.E-5,
(PID.TID 0000.0001) > viscAh             = 5.0E4,
(PID.TID 0000.0001) > viscA4             = 5.e12,
(PID.TID 0000.0001) >#diffKhT            = 1.0E3,
(PID.TID 0000.0001) >#diffKhS            = 1.0E3,
(PID.TID 0000.0001) > rotationPeriod     = 86400.,
(PID.TID 0000.0001) > tAlpha             = 2.E-4,
(PID.TID 0000.0001) > sBeta              = 7.4E-4,
(PID.TID 0000.0001) > gravity            = 9.81,
(PID.TID 0000.0001) > rigidLid           = .FALSE.,
(PID.TID 0000.0001) > implicitFreeSurface= .TRUE.,
(PID.TID 0000.0001) > implicitDiffusion  = .TRUE.,
(PID.TID 0000.0001) > useCDscheme        = .TRUE.,
(PID.TID 0000.0001) > useNHMTerms        = .TRUE.,
(PID.TID 0000.0001) > eosType            = 'POLY3',
(PID.TID 0000.0001) > momAdvection       = .TRUE.,
(PID.TID 0000.0001) > momViscosity       = .TRUE.,
(PID.TID 0000.0001) > implicitDiffusion  = .TRUE.,
(PID.TID 0000.0001) > implicitViscosity  = .TRUE.,
(PID.TID 0000.0001) > no_slip_bottom     = .TRUE.,
(PID.TID 0000.0001) > no_slip_sides      = .FALSE.,
(PID.TID 0000.0001) > readBinaryPrec     = 32,
(PID.TID 0000.0001) > writeBinaryPrec    = 64,
(PID.TID 0000.0001) >#- not safe to use globalFiles in multi-processors runs
(PID.TID 0000.0001) > globalFiles        = .TRUE.
(PID.TID 0000.0001) > /
(PID.TID 0000.0001) >
(PID.TID 0000.0001) ># Elliptic solver parameters
(PID.TID 0000.0001) >#
(PID.TID 0000.0001) >#   cg2dMaxIters       - Maximum number of 2d solver iterations
(PID.TID 0000.0001) >#   cg2dTargetResidual - Solver target residual
(PID.TID 0000.0001) >#
(PID.TID 0000.0001) > &PARM02
(PID.TID 0000.0001) > cg2dMaxIters       = 1000,
(PID.TID 0000.0001) > cg2dTargetResidual = 1.E-13,
(PID.TID 0000.0001) > /
(PID.TID 0000.0001) >
(PID.TID 0000.0001) ># Time stepping parameters
(PID.TID 0000.0001) >#
(PID.TID 0000.0001) >#   startTime         - Integration starting time                (s)
(PID.TID 0000.0001) >#   endTime           - Integration ending time                  (s)
(PID.TID 0000.0001) >#   tauCD             - CD scheme coupling timescale             (s)
(PID.TID 0000.0001) >#   deltaTMom         - Timestep for momemtum equations          (s)
(PID.TID 0000.0001) >#   deltaTtracer      - Tracer timestep                          (s)
(PID.TID 0000.0001) >#   deltaTClock       - Timestep used as model "clock"           (s)
(PID.TID 0000.0001) >#   abEps             - Adams-Bashforth stabilising factor
(PID.TID 0000.0001) >#   pChkPtFreq        - Frequency of permanent check pointing    (s)
(PID.TID 0000.0001) >#   chkPtFreq         - Frequency of rolling check pointing      (s)
(PID.TID 0000.0001) >#   dumpFreq          - Frequency at which model state is stored (s)
(PID.TID 0000.0001) >#   tauThetaClimRelax - Relaxation to climatology time scale     (s)
(PID.TID 0000.0001) >#   tauSaltClimRelax  - Relaxation to climatology time scale     (s)
(PID.TID 0000.0001) >#
(PID.TID 0000.0001) > &PARM03
(PID.TID 0000.0001) > baseTime   = 21600.,
(PID.TID 0000.0001) > startTime  = 21600.,
(PID.TID 0000.0001) > endTime    = 93600.,
(PID.TID 0000.0001) > deltaTmom  = 3600.0,
(PID.TID 0000.0001) > TauCD      = 172800.,
(PID.TID 0000.0001) > cAdjFreq   = 0.,
(PID.TID 0000.0001) > abEps      = 0.1,
(PID.TID 0000.0001) > pChkptFreq = 0.0,
(PID.TID 0000.0001) > chkptFreq  = 0.0,
(PID.TID 0000.0001) > dumpFreq   = 86400.,
(PID.TID 0000.0001) > tauSaltClimRelax = 2592000.0,
(PID.TID 0000.0001) > tauThetaClimRelax = 2592000.0,
(PID.TID 0000.0001) > periodicExternalForcing = .TRUE.,
(PID.TID 0000.0001) > externForcingPeriod = 43200.0,
(PID.TID 0000.0001) > externForcingCycle = 2764800.0,
(PID.TID 0000.0001) > monitorFreq=1.,
(PID.TID 0000.0001) > /
(PID.TID 0000.0001) >
(PID.TID 0000.0001) ># Gridding parameters
(PID.TID 0000.0001) >#
(PID.TID 0000.0001) >#   usingSphericalPolarGrid - On/Off flag for spherical polar coordinates
(PID.TID 0000.0001) >#   delX                    - Zonal grid spacing         (degrees)
(PID.TID 0000.0001) >#   delY                    - Meridional grid spacing    (degrees)
(PID.TID 0000.0001) >#   delZ                    - Vertical grid spacing      (m)
(PID.TID 0000.0001) >#   ygOrigin                - Southern boundary latitude (degrees)
(PID.TID 0000.0001) >#
(PID.TID 0000.0001) > &PARM04
(PID.TID 0000.0001) > usingSphericalPolarGrid = .TRUE.,
(PID.TID 0000.0001) > delX   = 20*2.,
(PID.TID 0000.0001) > delY   = 16*2.,
(PID.TID 0000.0001) > delZ= 10., 10., 15., 20., 20., 25., 35., 50., 75.,
(PID.TID 0000.0001) >       100., 150., 200., 275., 350., 415., 450.,
(PID.TID 0000.0001) >       500., 500., 500., 500., 500., 500., 500.,
(PID.TID 0000.0001) > ygOrigin = 10.,
(PID.TID 0000.0001) > xgOrigin= -42.,
(PID.TID 0000.0001) > /
(PID.TID 0000.0001) >
(PID.TID 0000.0001) ># Input datasets
(PID.TID 0000.0001) >#
(PID.TID 0000.0001) >#   bathyFile       - File containing bathymetry
(PID.TID 0000.0001) >#   hydrogThetaFile - File containing initial potential temperature data
(PID.TID 0000.0001) >#   hydrogSaltFile  - File containing initial salinity data
(PID.TID 0000.0001) >#   zonalWindFile   - File containing zonal wind data
(PID.TID 0000.0001) >#   meridWindFile   - File containing meridional wind data
(PID.TID 0000.0001) >#   thetaClimFile   - File containing theta climatology used for relaxation
(PID.TID 0000.0001) >#   saltClimFile    - File containing salt climatology used for relaxation
(PID.TID 0000.0001) >#
(PID.TID 0000.0001) > &PARM05
(PID.TID 0000.0001) > bathyFile       = 'kf_topog',
(PID.TID 0000.0001) > hydrogThetaFile = 'kf_climtheta',
(PID.TID 0000.0001) > hydrogSaltFile  = 'kf_climsalt',
(PID.TID 0000.0001) > zonalWindFile   = 'kf_tx',
(PID.TID 0000.0001) > meridWindFile   = 'kf_ty',
(PID.TID 0000.0001) > thetaClimFile   = 'kf_sst',
(PID.TID 0000.0001) > saltClimFile    = 'kf_sss',
(PID.TID 0000.0001) > surfQFile       = 'kf_qnet',
(PID.TID 0000.0001) > EmPmRFile       = 'kf_empmr',
(PID.TID 0000.0001) > surfQswFile     = 'kf_sw',
(PID.TID 0000.0001) > /
(PID.TID 0000.0001) 
(PID.TID 0000.0001) S/R INI_PARMS ; starts to read PARM01
(PID.TID 0000.0001) S/R INI_PARMS ; read PARM01 : OK
(PID.TID 0000.0001) S/R INI_PARMS ; starts to read PARM02
(PID.TID 0000.0001) S/R INI_PARMS ; read PARM02 : OK
(PID.TID 0000.0001) S/R INI_PARMS ; starts to read PARM03
(PID.TID 0000.0001) S/R INI_PARMS ; read PARM03 : OK
(PID.TID 0000.0001) S/R INI_PARMS ; starts to read PARM04
(PID.TID 0000.0001) S/R INI_PARMS ; read PARM04 : OK
(PID.TID 0000.0001) S/R INI_PARMS ; starts to read PARM05
(PID.TID 0000.0001) S/R INI_PARMS ; read PARM05 : OK
(PID.TID 0000.0001)  PACKAGES_BOOT: opening data.pkg
(PID.TID 0000.0001)  OPEN_COPY_DATA_FILE: opening file data.pkg
(PID.TID 0000.0001) // =======================================================
(PID.TID 0000.0001) // Parameter file "data.pkg"
(PID.TID 0000.0001) // =======================================================
(PID.TID 0000.0001) ># Packages
(PID.TID 0000.0001) > &PACKAGES
(PID.TID 0000.0001) >  useGMRedi=.TRUE.,
(PID.TID 0000.0001) >  useKPP=.TRUE.,
(PID.TID 0000.0001) >  useECCO=.FALSE.,
(PID.TID 0000.0001) >  usediagnostics=.TRUE.,
(PID.TID 0000.0001) >  usePTRACERS=.TRUE.,
(PID.TID 0000.0001) > /
(PID.TID 0000.0001) 
(PID.TID 0000.0001)  PACKAGES_BOOT: finished reading data.pkg
(PID.TID 0000.0001)  GM_READPARMS: opening data.gmredi
(PID.TID 0000.0001)  OPEN_COPY_DATA_FILE: opening file data.gmredi
(PID.TID 0000.0001) // =======================================================
(PID.TID 0000.0001) // Parameter file "data.gmredi"
(PID.TID 0000.0001) // =======================================================
(PID.TID 0000.0001) ># GM+Redi package parameters:
(PID.TID 0000.0001) >
(PID.TID 0000.0001) >#-from MOM :
(PID.TID 0000.0001) ># GM_background_K: 	G & Mc.W  diffusion coefficient
(PID.TID 0000.0001) ># GM_maxSlope    :	max slope of isopycnals
(PID.TID 0000.0001) ># GM_Scrit       :	transition for scaling diffusion coefficient
(PID.TID 0000.0001) ># GM_Sd          :	half width scaling for diffusion coefficient
(PID.TID 0000.0001) ># GM_taper_scheme:	slope clipping or one of the tapering schemes
(PID.TID 0000.0001) ># GM_Kmin_horiz  :	horizontal diffusion minimum value
(PID.TID 0000.0001) >
(PID.TID 0000.0001) >#-Option parameters (needs to "define" options in GMREDI_OPTIONS.h")
(PID.TID 0000.0001) ># GM_isopycK     :	isopycnal diffusion coefficient (default=GM_background_K)
(PID.TID 0000.0001) ># GM_AdvForm     :	turn on GM Advective form       (default=Skew flux form)
(PID.TID 0000.0001) >
(PID.TID 0000.0001) > &GM_PARM01
(PID.TID 0000.0001) >  GM_background_K    = 800.,
(PID.TID 0000.0001) >  GM_taper_scheme    = 'gkw91',
(PID.TID 0000.0001) >  GM_maxSlope        = 1.e-2,
(PID.TID 0000.0001) >  GM_Kmin_horiz      = 50.,
(PID.TID 0000.0001) >  GM_Scrit           = 4.e-3,
(PID.TID 0000.0001) >  GM_Sd              = 1.e-3,
(PID.TID 0000.0001) ># GM_Visbeck_alpha   = 0.,
(PID.TID 0000.0001) ># GM_Visbeck_length  = 2.e+5,
(PID.TID 0000.0001) ># GM_Visbeck_depth   = 1.e+3,
(PID.TID 0000.0001) ># GM_Visbeck_maxval_K= 2.5e+3,
(PID.TID 0000.0001) > /
(PID.TID 0000.0001) >
(PID.TID 0000.0001) >
(PID.TID 0000.0001) 
(PID.TID 0000.0001)  GM_READPARMS: finished reading data.gmredi
(PID.TID 0000.0001)  KPP_INIT: opening data.kpp
(PID.TID 0000.0001)  OPEN_COPY_DATA_FILE: opening file data.kpp
(PID.TID 0000.0001) // =======================================================
(PID.TID 0000.0001) // Parameter file "data.kpp"
(PID.TID 0000.0001) // =======================================================
(PID.TID 0000.0001) ># KPP parameters
(PID.TID 0000.0001) > &KPP_PARM01
(PID.TID 0000.0001) > KPPmixingMaps   = .FALSE.,
(PID.TID 0000.0001) > KPPwriteState   = .TRUE.,
(PID.TID 0000.0001) > /
(PID.TID 0000.0001) 
(PID.TID 0000.0001)  KPP_INIT: finished reading data.kpp
(PID.TID 0000.0001)  LONGSTEP_READPARMS: opening data.longstep
(PID.TID 0000.0001)  OPEN_COPY_DATA_FILE: opening file data.longstep
(PID.TID 0000.0001) // =======================================================
(PID.TID 0000.0001) // Parameter file "data.longstep"
(PID.TID 0000.0001) // =======================================================
(PID.TID 0000.0001) > &LONGSTEP_PARM01
(PID.TID 0000.0001) > LS_nIter=3,
(PID.TID 0000.0001) >#LS_afterTS=.TRUE.,
(PID.TID 0000.0001) >#LS_staggerTimeStep=.TRUE.,
(PID.TID 0000.0001) > /
(PID.TID 0000.0001) >
(PID.TID 0000.0001) 
(PID.TID 0000.0001)  LONGSTEP_READPARMS: finished reading data.longstep
(PID.TID 0000.0001) // ===================================
(PID.TID 0000.0001) // longstep parameters
(PID.TID 0000.0001) // ===================================
(PID.TID 0000.0001) LS_nIter = /* number of dynamics steps between ptracer steps */
(PID.TID 0000.0001)                       3
(PID.TID 0000.0001)     ;
(PID.TID 0000.0001) LS_staggerTimeStep = /* average U,V,W,T,S at end of time step */
(PID.TID 0000.0001)                   F
(PID.TID 0000.0001)     ;
(PID.TID 0000.0001) LS_afterTS = /* average T,S at end of time step */
(PID.TID 0000.0001)                   F
(PID.TID 0000.0001)     ;
(PID.TID 0000.0001)  -----------------------------------
(PID.TID 0000.0001)  PTRACERS_READPARMS: opening data.ptracers
(PID.TID 0000.0001)  OPEN_COPY_DATA_FILE: opening file data.ptracers
(PID.TID 0000.0001) // =======================================================
(PID.TID 0000.0001) // Parameter file "data.ptracers"
(PID.TID 0000.0001) // =======================================================
(PID.TID 0000.0001) ># Dye set-up: tracer is initialized after 10 years
(PID.TID 0000.0001) ># of spin-up of the dynamical fields.
(PID.TID 0000.0001) ># dye.bin has a dye concentration of 1 in a single grid cell
(PID.TID 0000.0001) ># near the left boundary (i=2, j=30, k=1), zero otherwise;
(PID.TID 0000.0001) ># generated with matlab using gendata.m
(PID.TID 0000.0001) >#
(PID.TID 0000.0001) > &PTRACERS_PARM01
(PID.TID 0000.0001) > PTRACERS_numInUse=1,
(PID.TID 0000.0001) > PTRACERS_Iter0=0,
(PID.TID 0000.0001) >#
(PID.TID 0000.0001) >#PTRACERS_advScheme(1)=2,
(PID.TID 0000.0001) >#PTRACERS_diffKh(1)=1.0E3,
(PID.TID 0000.0001) >#PTRACERS_diffK4(1)=0.,
(PID.TID 0000.0001) >#PTRACERS_diffKr(1)=1.E-5,
(PID.TID 0000.0001) > PTRACERS_useKPP(1)=.TRUE.,
(PID.TID 0000.0001) > PTRACERS_initialFile(1)='kf_climsalt',
(PID.TID 0000.0001) > /
(PID.TID 0000.0001) 
(PID.TID 0000.0001)  PTRACERS_READPARMS: finished reading data.ptracers
(PID.TID 0000.0001) // ===================================
(PID.TID 0000.0001) // PTRACERS parameters
(PID.TID 0000.0001) // ===================================
(PID.TID 0000.0001) PTRACERS_numInUse = /* number of tracers */
(PID.TID 0000.0001)                       1
(PID.TID 0000.0001)     ;
(PID.TID 0000.0001) PTRACERS_Iter0 = /* timestep number when tracers are initialized */
(PID.TID 0000.0001)                       0
(PID.TID 0000.0001)     ;
(PID.TID 0000.0001) PTRACERS_dTLev =   /* Ptracer timestep ( s ) */
(PID.TID 0000.0001)    23 @  1.080000000000000E+04              /* K =  1: 23 */
(PID.TID 0000.0001)     ;
(PID.TID 0000.0001) PTRACERS_dumpFreq = /* Frequency^-1 for snapshot output (s) */
(PID.TID 0000.0001)                 8.640000000000000E+04
(PID.TID 0000.0001)     ;
(PID.TID 0000.0001) PTRACERS_taveFreq = /* Frequency^-1 for time-Aver. output (s) */
(PID.TID 0000.0001)                 0.000000000000000E+00
(PID.TID 0000.0001)     ;
(PID.TID 0000.0001) PTRACERS_useRecords = /* all tracers in 1 file */
(PID.TID 0000.0001)                   F
(PID.TID 0000.0001)     ;
(PID.TID 0000.0001) PTRACERS_timeave_mnc = /* use MNC for Tave output */
(PID.TID 0000.0001)                   F
(PID.TID 0000.0001)     ;
(PID.TID 0000.0001) PTRACERS_snapshot_mnc = /* use MNC for snapshot output */
(PID.TID 0000.0001)                   F
(PID.TID 0000.0001)     ;
(PID.TID 0000.0001) PTRACERS_pickup_write_mnc = /* use MNC for writing pickups */
(PID.TID 0000.0001)                   F
(PID.TID 0000.0001)     ;
(PID.TID 0000.0001) PTRACERS_pickup_read_mnc = /* use MNC for reading pickups */
(PID.TID 0000.0001)                   F
(PID.TID 0000.0001)     ;
(PID.TID 0000.0001)  -----------------------------------
(PID.TID 0000.0001)  tracer number :    1
(PID.TID 0000.0001) PTRACERS_ioLabel = /* tracer IO Label */
(PID.TID 0000.0001)               '01'
(PID.TID 0000.0001)     ;
(PID.TID 0000.0001) PTRACERS_advScheme = /* Advection Scheme */
(PID.TID 0000.0001)                       2
(PID.TID 0000.0001)     ;
(PID.TID 0000.0001) PTRACERS_ImplVertAdv = /* implicit vert. advection flag */
(PID.TID 0000.0001)                   F
(PID.TID 0000.0001)     ;
(PID.TID 0000.0001) PTRACERS_diffKh = /* Laplacian Diffusivity */
(PID.TID 0000.0001)                 0.000000000000000E+00
(PID.TID 0000.0001)     ;
(PID.TID 0000.0001) PTRACERS_diffK4 = /* Biharmonic Diffusivity */
(PID.TID 0000.0001)                 0.000000000000000E+00
(PID.TID 0000.0001)     ;
(PID.TID 0000.0001) PTRACERS_diffKrNr = /* Vertical Diffusivity */
(PID.TID 0000.0001)    23 @  1.000000000000000E-05              /* K =  1: 23 */
(PID.TID 0000.0001)     ;
(PID.TID 0000.0001) PTRACERS_useGMRedi = /* apply GM-Redi */
(PID.TID 0000.0001)                   T
(PID.TID 0000.0001)     ;
(PID.TID 0000.0001) PTRACERS_useDWNSLP = /* apply DOWN-SLOPE Flow */
(PID.TID 0000.0001)                   F
(PID.TID 0000.0001)     ;
(PID.TID 0000.0001) PTRACERS_useKPP = /* apply KPP scheme */
(PID.TID 0000.0001)                   T
(PID.TID 0000.0001)     ;
(PID.TID 0000.0001) PTRACERS_ref = /* Reference vertical profile */
(PID.TID 0000.0001)    23 @  0.000000000000000E+00              /* K =  1: 23 */
(PID.TID 0000.0001)     ;
(PID.TID 0000.0001) PTRACERS_EvPrRn =/* tracer conc. in Evap. & Rain */
(PID.TID 0000.0001)                 1.234567000000000E+05
(PID.TID 0000.0001)     ;
(PID.TID 0000.0001)  -----------------------------------
(PID.TID 0000.0001)  DIAGNOSTICS_READPARMS: opening data.diagnostics
(PID.TID 0000.0001)  OPEN_COPY_DATA_FILE: opening file data.diagnostics
(PID.TID 0000.0001) // =======================================================
(PID.TID 0000.0001) // Parameter file "data.diagnostics"
(PID.TID 0000.0001) // =======================================================
(PID.TID 0000.0001) ># Diagnostic Package Choices
(PID.TID 0000.0001) >#-----------------
(PID.TID 0000.0001) ># for each output-stream:
(PID.TID 0000.0001) >#  filename(n) : prefix of the output file name (only 8.c long) for outp.stream n
(PID.TID 0000.0001) >#  frequency(n):< 0 : write snap-shot output every |frequency| seconds
(PID.TID 0000.0001) >#               > 0 : write time-average output every frequency seconds
(PID.TID 0000.0001) >#  timePhase(n)     : write at time = timePhase + multiple of |frequency|
(PID.TID 0000.0001) >#  levels(:,n) : list of levels to write to file (Notes: declared as REAL)
(PID.TID 0000.0001) >#                 when this entry is missing, select all common levels of this list
(PID.TID 0000.0001) >#  fields(:,n) : list of diagnostics fields (8.c) (see "available_diagnostics" file
(PID.TID 0000.0001) >#                 for the list of all available diag. in this particular config)
(PID.TID 0000.0001) >#-----------------
(PID.TID 0000.0001) ># This example dumps all KPP diagnostics as
(PID.TID 0000.0001) ># a snapshot every day, at mid day (t=12.h, baseTime=6.h, deltaT=1.h => iter=6)
(PID.TID 0000.0001) > &diagnostics_list
(PID.TID 0000.0001) >  frequency(1) = 10800.,
(PID.TID 0000.0001) >   fields(1,1) = 'TRAC01  ',
(PID.TID 0000.0001) >   filename(1) = 'TRAC01',
(PID.TID 0000.0001) > /
(PID.TID 0000.0001) >
(PID.TID 0000.0001) ># Parameter for Diagnostics of per level statistics:
(PID.TID 0000.0001) >#-----------------
(PID.TID 0000.0001) ># for each output-stream:
(PID.TID 0000.0001) >#  stat_fname(n) : prefix of the output file name (only 8.c long) for outp.stream n
(PID.TID 0000.0001) >#  stat_freq(n):< 0 : write snap-shot output every |stat_freq| seconds
(PID.TID 0000.0001) >#               > 0 : write time-average output every stat_freq seconds
(PID.TID 0000.0001) >#  stat_phase(n)    : write at time = stat_phase + multiple of |stat_freq|
(PID.TID 0000.0001) >#  stat_region(:,n) : list of "regions" (default: 1 region only=global)
(PID.TID 0000.0001) >#  stat_fields(:,n) : list of diagnostics fields (8.c) (see "available_diagnostics.log"
(PID.TID 0000.0001) >#                 file for the list of all available diag. in this particular config)
(PID.TID 0000.0001) >#-----------------
(PID.TID 0000.0001) > &DIAG_STATIS_PARMS
(PID.TID 0000.0001) >#- an example just to check the agreement with MONITOR output:
(PID.TID 0000.0001) >#stat_fields(1,1)= 'ETAN    ','UVEL    ','VVEL    ','WVEL    ', 'THETA   ',
(PID.TID 0000.0001) >#   stat_fname(1)= 'dynStDiag',
(PID.TID 0000.0001) >#    stat_freq(1)= -864000.,
(PID.TID 0000.0001) >#   stat_phase(1)= 0.,
(PID.TID 0000.0001) > /
(PID.TID 0000.0001) >
(PID.TID 0000.0001) 
(PID.TID 0000.0001) S/R DIAGNOSTICS_READPARMS, read namelist "diagnostics_list": start
(PID.TID 0000.0001) S/R DIAGNOSTICS_READPARMS, read namelist "diagnostics_list": OK
(PID.TID 0000.0001) S/R DIAGNOSTICS_READPARMS, read namelist "DIAG_STATIS_PARMS": start
(PID.TID 0000.0001) S/R DIAGNOSTICS_READPARMS, read namelist "DIAG_STATIS_PARMS": OK
(PID.TID 0000.0001) -----------------------------------------------------
(PID.TID 0000.0001)  DIAGNOSTICS_READPARMS: active diagnostics summary:
(PID.TID 0000.0001) -----------------------------------------------------
(PID.TID 0000.0001) Creating Output Stream: TRAC01
(PID.TID 0000.0001) Output Frequency:      10800.000000 ; Phase:           0.000000
(PID.TID 0000.0001)  Averaging Freq.:      10800.000000 , Phase:           0.000000 , Cycle:   1
(PID.TID 0000.0001)  missing value:  1.234567000000E+05 ; for integers:   123456789
(PID.TID 0000.0001)  Levels:    will be set later
(PID.TID 0000.0001)  Fields:    TRAC01
(PID.TID 0000.0001) -----------------------------------------------------
(PID.TID 0000.0001)  DIAGNOSTICS_READPARMS: statistics diags. summary:
(PID.TID 0000.0001) -----------------------------------------------------
(PID.TID 0000.0001) 
(PID.TID 0000.0001) S/R LONGSTEP_CHECK_ITERS:  adjusting endTime:
(PID.TID 0000.0001) endTime =   /* Integration ending time ( s ). */
(PID.TID 0000.0001)                 9.720000000000000E+04
(PID.TID 0000.0001)     ;
(PID.TID 0000.0001) nTimeSteps =   /* Number of timesteps */
(PID.TID 0000.0001)                      21
(PID.TID 0000.0001)     ;
(PID.TID 0000.0001) SET_PARMS: done
(PID.TID 0000.0001) Enter INI_VERTICAL_GRID: setInterFDr=    T ; setCenterDr=    F
(PID.TID 0000.0001) %MON XC_max                       =  -3.0000000000000E+00
(PID.TID 0000.0001) %MON XC_min                       =  -4.1000000000000E+01
(PID.TID 0000.0001) %MON XC_mean                      =  -2.2000000000000E+01
(PID.TID 0000.0001) %MON XC_sd                        =   1.1532562594671E+01
(PID.TID 0000.0001) %MON XG_max                       =  -4.0000000000000E+00
(PID.TID 0000.0001) %MON XG_min                       =  -4.2000000000000E+01
(PID.TID 0000.0001) %MON XG_mean                      =  -2.3000000000000E+01
(PID.TID 0000.0001) %MON XG_sd                        =   1.1532562594671E+01
(PID.TID 0000.0001) %MON DXC_max                      =   2.1826966005878E+05
(PID.TID 0000.0001) %MON DXC_min                      =   1.6781340848749E+05
(PID.TID 0000.0001) %MON DXC_mean                     =   1.9727395728441E+05
(PID.TID 0000.0001) %MON DXC_sd                       =   1.5731168072696E+04
(PID.TID 0000.0001) %MON DXF_max                      =   2.1826966005878E+05
(PID.TID 0000.0001) %MON DXF_min                      =   1.6781340848749E+05
(PID.TID 0000.0001) %MON DXF_mean                     =   1.9727395728441E+05
(PID.TID 0000.0001) %MON DXF_sd                       =   1.5731168072696E+04
(PID.TID 0000.0001) %MON DXG_max                      =   2.1897687543479E+05
(PID.TID 0000.0001) %MON DXG_min                      =   1.7033377132268E+05
(PID.TID 0000.0001) %MON DXG_mean                     =   1.9892312861058E+05
(PID.TID 0000.0001) %MON DXG_sd                       =   1.5180938630473E+04
(PID.TID 0000.0001) %MON DXV_max                      =   2.1897687543479E+05
(PID.TID 0000.0001) %MON DXV_min                      =   1.7033377132268E+05
(PID.TID 0000.0001) %MON DXV_mean                     =   1.9892312861058E+05
(PID.TID 0000.0001) %MON DXV_sd                       =   1.5180938630473E+04
(PID.TID 0000.0001) %MON YC_max                       =   4.1000000000000E+01
(PID.TID 0000.0001) %MON YC_min                       =   1.1000000000000E+01
(PID.TID 0000.0001) %MON YC_mean                      =   2.6000000000000E+01
(PID.TID 0000.0001) %MON YC_sd                        =   9.2195444572929E+00
(PID.TID 0000.0001) %MON YG_max                       =   4.0000000000000E+01
(PID.TID 0000.0001) %MON YG_min                       =   1.0000000000000E+01
(PID.TID 0000.0001) %MON YG_mean                      =   2.5000000000000E+01
(PID.TID 0000.0001) %MON YG_sd                        =   9.2195444572929E+00
(PID.TID 0000.0001) %MON DYC_max                      =   2.2235494670408E+05
(PID.TID 0000.0001) %MON DYC_min                      =   2.2235494670408E+05
(PID.TID 0000.0001) %MON DYC_mean                     =   2.2235494670408E+05
(PID.TID 0000.0001) %MON DYC_sd                       =   4.6566128730774E-10
(PID.TID 0000.0001) %MON DYF_max                      =   2.2235494670408E+05
(PID.TID 0000.0001) %MON DYF_min                      =   2.2235494670408E+05
(PID.TID 0000.0001) %MON DYF_mean                     =   2.2235494670408E+05
(PID.TID 0000.0001) %MON DYF_sd                       =   4.6566128730774E-10
(PID.TID 0000.0001) %MON DYG_max                      =   2.2235494670408E+05
(PID.TID 0000.0001) %MON DYG_min                      =   2.2235494670408E+05
(PID.TID 0000.0001) %MON DYG_mean                     =   2.2235494670408E+05
(PID.TID 0000.0001) %MON DYG_sd                       =   4.6566128730774E-10
(PID.TID 0000.0001) %MON DYU_max                      =   2.2235494670408E+05
(PID.TID 0000.0001) %MON DYU_min                      =   2.2235494670408E+05
(PID.TID 0000.0001) %MON DYU_mean                     =   2.2235494670408E+05
(PID.TID 0000.0001) %MON DYU_sd                       =   4.6566128730774E-10
(PID.TID 0000.0001) %MON RA_max                       =   4.8530874650285E+10
(PID.TID 0000.0001) %MON RA_min                       =   3.7312247106402E+10
(PID.TID 0000.0001) %MON RA_mean                      =   4.3862613292919E+10
(PID.TID 0000.0001) %MON RA_sd                        =   3.4977254540690E+09
(PID.TID 0000.0001) %MON RAW_max                      =   4.8530874650285E+10
(PID.TID 0000.0001) %MON RAW_min                      =   3.7312247106402E+10
(PID.TID 0000.0001) %MON RAW_mean                     =   4.3862613292919E+10
(PID.TID 0000.0001) %MON RAW_sd                       =   3.4977254540690E+09
(PID.TID 0000.0001) %MON RAS_max                      =   4.8688119503989E+10
(PID.TID 0000.0001) %MON RAS_min                      =   3.7872633798691E+10
(PID.TID 0000.0001) %MON RAS_mean                     =   4.4229296078267E+10
(PID.TID 0000.0001) %MON RAS_sd                       =   3.3753854271397E+09
(PID.TID 0000.0001) %MON RAZ_max                      =   4.8688119503989E+10
(PID.TID 0000.0001) %MON RAZ_min                      =   3.7872633798691E+10
(PID.TID 0000.0001) %MON RAZ_mean                     =   4.4229296078267E+10
(PID.TID 0000.0001) %MON RAZ_sd                       =   3.3753854271397E+09
(PID.TID 0000.0001) %MON AngleCS_max                  =   1.0000000000000E+00
(PID.TID 0000.0001) %MON AngleCS_min                  =   1.0000000000000E+00
(PID.TID 0000.0001) %MON AngleCS_mean                 =   1.0000000000000E+00
(PID.TID 0000.0001) %MON AngleCS_sd                   =   0.0000000000000E+00
(PID.TID 0000.0001) %MON AngleSN_max                  =   0.0000000000000E+00
(PID.TID 0000.0001) %MON AngleSN_min                  =   0.0000000000000E+00
(PID.TID 0000.0001) %MON AngleSN_mean                 =   0.0000000000000E+00
(PID.TID 0000.0001) %MON AngleSN_sd                   =   0.0000000000000E+00
(PID.TID 0000.0001)  MDS_READ_FIELD: opening global file: kf_topog
(PID.TID 0000.0001) // =======================================================
(PID.TID 0000.0001) // Field Model R_low (ini_masks_etc) at iteration          1
(PID.TID 0000.0001) // CMIN =         -5.200000000000000E+03
(PID.TID 0000.0001) // CMAX =         -3.600000000000000E+02
(PID.TID 0000.0001) // CINT =          1.792592592592593E+02
(PID.TID 0000.0001) // SYMBOLS (CMIN->CMAX): -abcdefghijklmnopqrstuvwxyz+
(PID.TID 0000.0001) //                  0.0: .
(PID.TID 0000.0001) // RANGE I (Lo:Hi:Step):(  -3:  24:   1)
(PID.TID 0000.0001) // RANGE J (Lo:Hi:Step):(  20:  -3:  -1)
(PID.TID 0000.0001) // RANGE K (Lo:Hi:Step):(   1:   1:   1)
(PID.TID 0000.0001) // =======================================================
(PID.TID 0000.0001) K =   1
(PID.TID 0000.0001) //                I=6       I=8       I=18
(PID.TID 0000.0001) // |--J--|321012345|789012347|901234567|901234
(PID.TID 0000.0001) //     20 .....cc-----cfkhkz--cfkhkz.......cc-
(PID.TID 0000.0001) //     19 .....c-------cccfy---cccfy.......c--
(PID.TID 0000.0001) //     18 .....hcc------ccfx----ccfx.......hcc
(PID.TID 0000.0001) //     17 ....................................
(PID.TID 0000.0001) //     16 ....................................
(PID.TID 0000.0001) //     15 hv+..fhknsqknnff-cqknnff-ckhhv+..fhk
(PID.TID 0000.0001) //     14 fhx..hknnnnkhcc-chnkhcc-chhhfhx..hkn
(PID.TID 0000.0001) //     13 fz...knnkhknf--chkknf--chkfffz...knn
(PID.TID 0000.0001) //     12 q....nkhfffhc--cfffhc--cffhnq....nkh
(PID.TID 0000.0001) //     11 +....khfccccc-ccfkccc-ccfkkv+....khf
(PID.TID 0000.0001) //     10 .....hcc---cc-cfhk-cc-cfhks......hcc
(PID.TID 0000.0001) //      9 .....fc-------cfkq----cfkq.......fc-
(PID.TID 0000.0001) //      8 .....c-------ccfkx---ccfkx.......c--
(PID.TID 0000.0001) //      7 .....c---cfcccfhk+fcccfhk+.......c--
(PID.TID 0000.0001) //      6 .....c---cccffhknvccffhknv.......c--
(PID.TID 0000.0001) //      5 .....c--ccccfkkkkqccfkkkkq.......c--
(PID.TID 0000.0001) //      4 .....cc-----cfkhkz--cfkhkz.......cc-
(PID.TID 0000.0001) //      3 .....c-------cccfy---cccfy.......c--
(PID.TID 0000.0001) //      2 .....hcc------ccfx----ccfx.......hcc
(PID.TID 0000.0001) //      1 ....................................
(PID.TID 0000.0001) //      0 ....................................
(PID.TID 0000.0001) //     -1 hv+..fhknsqknnff-cqknnff-ckhhv+..fhk
(PID.TID 0000.0001) //     -2 fhx..hknnnnkhcc-chnkhcc-chhhfhx..hkn
(PID.TID 0000.0001) //     -3 fz...knnkhknf--chkknf--chkfffz...knn
(PID.TID 0000.0001) // =======================================================
(PID.TID 0000.0001) // END OF FIELD                                          =
(PID.TID 0000.0001) // =======================================================
(PID.TID 0000.0001) 
(PID.TID 0000.0001) // =======================================================
(PID.TID 0000.0001) // Field Model Ro_surf (ini_masks_etc) at iteration          1
(PID.TID 0000.0001) // CMIN =          1.000000000000000E+32
(PID.TID 0000.0001) // CMAX =         -1.000000000000000E+32
(PID.TID 0000.0001) // CINT =          0.000000000000000E+00
(PID.TID 0000.0001) // SYMBOLS (CMIN->CMAX): -abcdefghijklmnopqrstuvwxyz+
(PID.TID 0000.0001) //                  0.0: .
(PID.TID 0000.0001) // RANGE I (Lo:Hi:Step):(  -3:  24:   1)
(PID.TID 0000.0001) // RANGE J (Lo:Hi:Step):(  20:  -3:  -1)
(PID.TID 0000.0001) // RANGE K (Lo:Hi:Step):(   1:   1:   1)
(PID.TID 0000.0001) // =======================================================
(PID.TID 0000.0001) // =======================================================
(PID.TID 0000.0001) // END OF FIELD                                          =
(PID.TID 0000.0001) // =======================================================
(PID.TID 0000.0001) 
(PID.TID 0000.0001) // =======================================================
(PID.TID 0000.0001) // Field hFacC at iteration          1
(PID.TID 0000.0001) // CMIN =          1.000000000000000E+00
(PID.TID 0000.0001) // CMAX =          1.000000000000000E+00
(PID.TID 0000.0001) // CINT =          0.000000000000000E+00
(PID.TID 0000.0001) // SYMBOLS (CMIN->CMAX): -abcdefghijklmnopqrstuvwxyz+
(PID.TID 0000.0001) //                  0.0: .
(PID.TID 0000.0001) // RANGE I (Lo:Hi:Step):(  -3:  24:   1)
(PID.TID 0000.0001) // RANGE J (Lo:Hi:Step):(  20:  -3:  -1)
(PID.TID 0000.0001) // RANGE K (Lo:Hi:Step):(   1:   1:   1)
(PID.TID 0000.0001) // =======================================================
(PID.TID 0000.0001) // =======================================================
(PID.TID 0000.0001) // END OF FIELD                                          =
(PID.TID 0000.0001) // =======================================================
(PID.TID 0000.0001) 
(PID.TID 0000.0001) // =======================================================
(PID.TID 0000.0001) // Field hFacW at iteration          1
(PID.TID 0000.0001) // CMIN =          1.000000000000000E+00
(PID.TID 0000.0001) // CMAX =          1.000000000000000E+00
(PID.TID 0000.0001) // CINT =          0.000000000000000E+00
(PID.TID 0000.0001) // SYMBOLS (CMIN->CMAX): -abcdefghijklmnopqrstuvwxyz+
(PID.TID 0000.0001) //                  0.0: .
(PID.TID 0000.0001) // RANGE I (Lo:Hi:Step):(  -3:  24:   1)
(PID.TID 0000.0001) // RANGE J (Lo:Hi:Step):(  20:  -3:  -1)
(PID.TID 0000.0001) // RANGE K (Lo:Hi:Step):(   1:   1:   1)
(PID.TID 0000.0001) // =======================================================
(PID.TID 0000.0001) // =======================================================
(PID.TID 0000.0001) // END OF FIELD                                          =
(PID.TID 0000.0001) // =======================================================
(PID.TID 0000.0001) 
(PID.TID 0000.0001) // =======================================================
(PID.TID 0000.0001) // Field hFacS at iteration          1
(PID.TID 0000.0001) // CMIN =          1.000000000000000E+00
(PID.TID 0000.0001) // CMAX =          1.000000000000000E+00
(PID.TID 0000.0001) // CINT =          0.000000000000000E+00
(PID.TID 0000.0001) // SYMBOLS (CMIN->CMAX): -abcdefghijklmnopqrstuvwxyz+
(PID.TID 0000.0001) //                  0.0: .
(PID.TID 0000.0001) // RANGE I (Lo:Hi:Step):(  -3:  24:   1)
(PID.TID 0000.0001) // RANGE J (Lo:Hi:Step):(  20:  -3:  -1)
(PID.TID 0000.0001) // RANGE K (Lo:Hi:Step):(   1:   1:   1)
(PID.TID 0000.0001) // =======================================================
(PID.TID 0000.0001) // =======================================================
(PID.TID 0000.0001) // END OF FIELD                                          =
(PID.TID 0000.0001) // =======================================================
(PID.TID 0000.0001) 
(PID.TID 0000.0001) 
(PID.TID 0000.0001) // ===================================
(PID.TID 0000.0001) // GAD parameters :
(PID.TID 0000.0001) // ===================================
(PID.TID 0000.0001) tempAdvScheme =   /* Temp. Horiz.Advection scheme selector */
(PID.TID 0000.0001)                       2
(PID.TID 0000.0001)     ;
(PID.TID 0000.0001) tempVertAdvScheme =   /* Temp. Vert. Advection scheme selector */
(PID.TID 0000.0001)                       2
(PID.TID 0000.0001)     ;
(PID.TID 0000.0001) tempMultiDimAdvec =   /* use Muti-Dim Advec method for Temp */
(PID.TID 0000.0001)                   F
(PID.TID 0000.0001)     ;
(PID.TID 0000.0001) tempSOM_Advection = /* use 2nd Order Moment Advection for Temp */
(PID.TID 0000.0001)                   F
(PID.TID 0000.0001)     ;
(PID.TID 0000.0001) AdamsBashforthGt = /* apply Adams-Bashforth extrapolation on Gt */
(PID.TID 0000.0001)                   T
(PID.TID 0000.0001)     ;
(PID.TID 0000.0001) AdamsBashforth_T = /* apply Adams-Bashforth extrapolation on Temp */
(PID.TID 0000.0001)                   F
(PID.TID 0000.0001)     ;
(PID.TID 0000.0001) saltAdvScheme =   /* Salt. Horiz.advection scheme selector */
(PID.TID 0000.0001)                       2
(PID.TID 0000.0001)     ;
(PID.TID 0000.0001) saltVertAdvScheme =   /* Salt. Vert. Advection scheme selector */
(PID.TID 0000.0001)                       2
(PID.TID 0000.0001)     ;
(PID.TID 0000.0001) saltMultiDimAdvec =   /* use Muti-Dim Advec method for Salt */
(PID.TID 0000.0001)                   F
(PID.TID 0000.0001)     ;
(PID.TID 0000.0001) saltSOM_Advection = /* use 2nd Order Moment Advection for Salt */
(PID.TID 0000.0001)                   F
(PID.TID 0000.0001)     ;
(PID.TID 0000.0001) AdamsBashforthGs = /* apply Adams-Bashforth extrapolation on Gs */
(PID.TID 0000.0001)                   T
(PID.TID 0000.0001)     ;
(PID.TID 0000.0001) AdamsBashforth_S = /* apply Adams-Bashforth extrapolation on Salt */
(PID.TID 0000.0001)                   F
(PID.TID 0000.0001)     ;
(PID.TID 0000.0001) // ===================================
(PID.TID 0000.0001) PTRACERS_INIT_FIXED: PTRACERS_SOM_Advection(   1) =     F
(PID.TID 0000.0001) ------------------------------------------------------------
(PID.TID 0000.0001) DIAGNOSTICS_SET_LEVELS: done
(PID.TID 0000.0001)  Total Nb of available Diagnostics: ndiagt=   221
(PID.TID 0000.0001)  write list of available Diagnostics to file: available_diagnostics.log
(PID.TID 0000.0001) SETDIAG: Allocate 23 x  1 Levels for Diagnostic #   211 TRAC01
(PID.TID 0000.0001)   space allocated for all diagnostics:      23 levels
(PID.TID 0000.0001) DIAGNOSTICS_SET_POINTERS: Set levels for Outp.Stream: TRAC01
(PID.TID 0000.0001)  Levels:       1.   2.   3.   4.   5.   6.   7.   8.   9.  10.  11.  12.  13.  14.  15.  16.  17.  18.  19.  20.
(PID.TID 0000.0001)  Levels:      21.  22.  23.
(PID.TID 0000.0001) DIAGNOSTICS_SET_POINTERS: done
(PID.TID 0000.0001) ------------------------------------------------------------
(PID.TID 0000.0001) DIAGSTATS_SET_REGIONS: define no region
(PID.TID 0000.0001) ------------------------------------------------------------
(PID.TID 0000.0001)   space allocated for all stats-diags:       0 levels
(PID.TID 0000.0001) DIAGSTATS_SET_POINTERS: done
(PID.TID 0000.0001) ------------------------------------------------------------
(PID.TID 0000.0001) %MON fCori_max                    =   9.5419917861011E-05
(PID.TID 0000.0001) %MON fCori_min                    =   2.7752043431195E-05
(PID.TID 0000.0001) %MON fCori_mean                   =   6.2936249243168E-05
(PID.TID 0000.0001) %MON fCori_sd                     =   2.0885809702547E-05
(PID.TID 0000.0001) %MON fCoriG_max                   =   9.3489668167119E-05
(PID.TID 0000.0001) %MON fCoriG_min                   =   2.5256103669800E-05
(PID.TID 0000.0001) %MON fCoriG_mean                  =   6.0674632558389E-05
(PID.TID 0000.0001) %MON fCoriG_sd                    =   2.1059305790472E-05
(PID.TID 0000.0001) %MON fCoriCos_max                 =   1.4277188648533E-04
(PID.TID 0000.0001) %MON fCoriCos_min                 =   1.0976805892693E-04
(PID.TID 0000.0001) %MON fCoriCos_mean                =   1.2903843359786E-04
(PID.TID 0000.0001) %MON fCoriCos_sd                  =   1.0289879691716E-05
(PID.TID 0000.0001) INI_CG2D: CG2D normalisation factor =  1.5752923928634454E-04
(PID.TID 0000.0001) 
(PID.TID 0000.0001) // =======================================================
(PID.TID 0000.0001) // Model configuration
(PID.TID 0000.0001) // =======================================================
(PID.TID 0000.0001) //
(PID.TID 0000.0001) // "Physical" paramters ( PARM01 in namelist )
(PID.TID 0000.0001) //
(PID.TID 0000.0001) buoyancyRelation = /* Type of relation to get Buoyancy */
(PID.TID 0000.0001)               'OCEANIC'
(PID.TID 0000.0001)     ;
(PID.TID 0000.0001) fluidIsAir  =  /* fluid major constituent is Air */
(PID.TID 0000.0001)                   F
(PID.TID 0000.0001)     ;
(PID.TID 0000.0001) fluidIsWater=  /* fluid major constituent is Water */
(PID.TID 0000.0001)                   T
(PID.TID 0000.0001)     ;
(PID.TID 0000.0001) usingPCoords =  /* use p (or p*) vertical coordinate */
(PID.TID 0000.0001)                   F
(PID.TID 0000.0001)     ;
(PID.TID 0000.0001) usingZCoords =  /* use z (or z*) vertical coordinate */
(PID.TID 0000.0001)                   T
(PID.TID 0000.0001)     ;
(PID.TID 0000.0001) tRef =   /* Reference temperature profile ( oC or K ) */
(PID.TID 0000.0001)    23 @  2.000000000000000E+01              /* K =  1: 23 */
(PID.TID 0000.0001)     ;
(PID.TID 0000.0001) sRef =   /* Reference salinity profile ( psu ) */
(PID.TID 0000.0001)    23 @  3.000000000000000E+01              /* K =  1: 23 */
(PID.TID 0000.0001)     ;
(PID.TID 0000.0001) viscAh =   /* Lateral eddy viscosity ( m^2/s ) */
(PID.TID 0000.0001)                 5.000000000000000E+04
(PID.TID 0000.0001)     ;
(PID.TID 0000.0001) viscAhMax =   /* Maximum lateral eddy viscosity ( m^2/s ) */
(PID.TID 0000.0001)                 1.000000000000000E+21
(PID.TID 0000.0001)     ;
(PID.TID 0000.0001) viscAhGrid =   /* Grid dependent lateral eddy viscosity ( non-dim. ) */
(PID.TID 0000.0001)                 0.000000000000000E+00
(PID.TID 0000.0001)     ;
(PID.TID 0000.0001) useFullLeith =   /* Use Full Form of Leith Viscosity on/off flag*/
(PID.TID 0000.0001)                   F
(PID.TID 0000.0001)     ;
(PID.TID 0000.0001) useStrainTensionVisc =   /* Use StrainTension Form of Viscous Operator on/off flag*/
(PID.TID 0000.0001)                   F
(PID.TID 0000.0001)     ;
(PID.TID 0000.0001) useAreaViscLength =   /* Use area for visc length instead of geom. mean*/
(PID.TID 0000.0001)                   F
(PID.TID 0000.0001)     ;
(PID.TID 0000.0001) viscC2leith = /* Leith harmonic visc. factor (on grad(vort),non-dim.) */
(PID.TID 0000.0001)                 0.000000000000000E+00
(PID.TID 0000.0001)     ;
(PID.TID 0000.0001) viscC2leithD = /* Leith harmonic viscosity factor (on grad(div),non-dim.) */
(PID.TID 0000.0001)                 0.000000000000000E+00
(PID.TID 0000.0001)     ;
(PID.TID 0000.0001) viscC2smag =   /* Smagorinsky harmonic viscosity factor (non-dim.) */
(PID.TID 0000.0001)                 0.000000000000000E+00
(PID.TID 0000.0001)     ;
(PID.TID 0000.0001) viscA4 =   /* Lateral biharmonic viscosity ( m^4/s ) */
(PID.TID 0000.0001)                 5.000000000000000E+12
(PID.TID 0000.0001)     ;
(PID.TID 0000.0001) viscA4Max =   /* Maximum biharmonic viscosity ( m^2/s ) */
(PID.TID 0000.0001)                 1.000000000000000E+21
(PID.TID 0000.0001)     ;
(PID.TID 0000.0001) viscA4Grid =   /* Grid dependent biharmonic viscosity ( non-dim. ) */
(PID.TID 0000.0001)                 0.000000000000000E+00
(PID.TID 0000.0001)     ;
(PID.TID 0000.0001) viscC4leith = /* Leith biharm viscosity factor (on grad(vort), non-dim.) */
(PID.TID 0000.0001)                 0.000000000000000E+00
(PID.TID 0000.0001)     ;
(PID.TID 0000.0001) viscC4leithD = /* Leith biharm viscosity factor (on grad(div), non-dim.) */
(PID.TID 0000.0001)                 0.000000000000000E+00
(PID.TID 0000.0001)     ;
(PID.TID 0000.0001) viscC4Smag = /* Smagorinsky biharm viscosity factor (non-dim) */
(PID.TID 0000.0001)                 0.000000000000000E+00
(PID.TID 0000.0001)     ;
(PID.TID 0000.0001) no_slip_sides =  /* Viscous BCs: No-slip sides */
(PID.TID 0000.0001)                   F
(PID.TID 0000.0001)     ;
(PID.TID 0000.0001) sideDragFactor = /* side-drag scaling factor (non-dim) */
(PID.TID 0000.0001)                 2.000000000000000E+00
(PID.TID 0000.0001)     ;
(PID.TID 0000.0001) viscAr =   /* Vertical eddy viscosity ( m^2/s ) */
(PID.TID 0000.0001)                 1.000000000000000E-03
(PID.TID 0000.0001)     ;
(PID.TID 0000.0001) no_slip_bottom =  /* Viscous BCs: No-slip bottom */
(PID.TID 0000.0001)                   T
(PID.TID 0000.0001)     ;
(PID.TID 0000.0001) bottomDragLinear = /* linear bottom-drag coefficient ( m/s ) */
(PID.TID 0000.0001)                 0.000000000000000E+00
(PID.TID 0000.0001)     ;
(PID.TID 0000.0001) bottomDragQuadratic = /* quadratic bottom-drag coefficient (-) */
(PID.TID 0000.0001)                 0.000000000000000E+00
(PID.TID 0000.0001)     ;
(PID.TID 0000.0001) diffKhT =   /* Laplacian diffusion of heat laterally ( m^2/s ) */
(PID.TID 0000.0001)                 0.000000000000000E+00
(PID.TID 0000.0001)     ;
(PID.TID 0000.0001) diffK4T =   /* Biharmonic diffusion of heat laterally ( m^4/s ) */
(PID.TID 0000.0001)                 0.000000000000000E+00
(PID.TID 0000.0001)     ;
(PID.TID 0000.0001) diffKhS =   /* Laplacian diffusion of salt laterally ( m^2/s ) */
(PID.TID 0000.0001)                 0.000000000000000E+00
(PID.TID 0000.0001)     ;
(PID.TID 0000.0001) diffK4S =   /* Biharmonic diffusion of salt laterally ( m^4/s ) */
(PID.TID 0000.0001)                 0.000000000000000E+00
(PID.TID 0000.0001)     ;
(PID.TID 0000.0001) diffKrNrT = /* vertical profile of vertical diffusion of Temp ( m^2/s )*/
(PID.TID 0000.0001)    23 @  1.000000000000000E-05              /* K =  1: 23 */
(PID.TID 0000.0001)     ;
(PID.TID 0000.0001) diffKrNrS = /* vertical profile of vertical diffusion of Salt ( m^2/s )*/
(PID.TID 0000.0001)    23 @  1.000000000000000E-05              /* K =  1: 23 */
(PID.TID 0000.0001)     ;
(PID.TID 0000.0001) diffKrBL79surf = /* Surface diffusion for Bryan and Lewis 79 ( m^2/s ) */
(PID.TID 0000.0001)                 0.000000000000000E+00
(PID.TID 0000.0001)     ;
(PID.TID 0000.0001) diffKrBL79deep = /* Deep diffusion for Bryan and Lewis 1979 ( m^2/s ) */
(PID.TID 0000.0001)                 0.000000000000000E+00
(PID.TID 0000.0001)     ;
(PID.TID 0000.0001) diffKrBL79scl = /* Depth scale for Bryan and Lewis 1979 ( m ) */
(PID.TID 0000.0001)                 2.000000000000000E+02
(PID.TID 0000.0001)     ;
(PID.TID 0000.0001) diffKrBL79Ho = /* Turning depth for Bryan and Lewis 1979 ( m ) */
(PID.TID 0000.0001)                -2.000000000000000E+03
(PID.TID 0000.0001)     ;
(PID.TID 0000.0001) ivdc_kappa = /* Implicit Vertical Diffusivity for Convection ( m^2/s ) */
(PID.TID 0000.0001)                 0.000000000000000E+00
(PID.TID 0000.0001)     ;
(PID.TID 0000.0001) hMixCriteria=  /* Criteria for mixed-layer diagnostic */
(PID.TID 0000.0001)                -8.000000000000000E-01
(PID.TID 0000.0001)     ;
(PID.TID 0000.0001) dRhoSmall=  /* Parameter for mixed-layer diagnostic */
(PID.TID 0000.0001)                 1.000000000000000E-06
(PID.TID 0000.0001)     ;
(PID.TID 0000.0001) hMixSmooth=  /* Smoothing parameter for mixed-layer diagnostic */
(PID.TID 0000.0001)                 0.000000000000000E+00
(PID.TID 0000.0001)     ;
(PID.TID 0000.0001) eosType =  /* Type of Equation of State */
(PID.TID 0000.0001)               'POLY3 '
(PID.TID 0000.0001)     ;
(PID.TID 0000.0001) tAlpha =   /* Linear EOS thermal expansion coefficient ( 1/oC ) */
(PID.TID 0000.0001)                 2.000000000000000E-04
(PID.TID 0000.0001)     ;
(PID.TID 0000.0001) sBeta =   /* Linear EOS haline contraction coefficient ( 1/psu ) */
(PID.TID 0000.0001)                 7.400000000000000E-04
(PID.TID 0000.0001)     ;
(PID.TID 0000.0001)   1  13.499  32.600  24.480  -0.201   0.771  -0.005  -0.002   0.000   0.000   0.000   0.000   0.000
(PID.TID 0000.0001)   2  13.498  32.600  24.525  -0.202   0.771  -0.005  -0.002   0.000   0.000   0.000   0.000   0.000
(PID.TID 0000.0001)   3  13.496  32.600  24.581  -0.202   0.771  -0.005  -0.002   0.000   0.000   0.000   0.000   0.000
(PID.TID 0000.0001)   4  13.494  32.600  24.660  -0.202   0.771  -0.005  -0.002   0.000   0.000   0.000   0.000   0.000
(PID.TID 0000.0001)   5  13.491  32.600  24.750  -0.203   0.771  -0.005  -0.002   0.000   0.000   0.000   0.000   0.000
(PID.TID 0000.0001)   6  13.488  32.600  24.851  -0.203   0.770  -0.005  -0.002   0.000   0.000   0.000   0.000   0.000
(PID.TID 0000.0001)   7  13.484  32.600  24.985  -0.204   0.770  -0.005  -0.002   0.000   0.000   0.000   0.000   0.000
(PID.TID 0000.0001)   8  13.478  32.600  25.176  -0.204   0.770  -0.005  -0.002   0.000   0.000   0.000   0.000   0.000
(PID.TID 0000.0001)   9  13.469  32.600  25.456  -0.205   0.769  -0.005  -0.002   0.000   0.000   0.000   0.000   0.000
(PID.TID 0000.0001)  10   8.467  35.150  28.748  -0.163   0.781  -0.005  -0.002   0.001   0.000   0.000   0.000   0.000
(PID.TID 0000.0001)  11   8.454  35.150  29.315  -0.166   0.780  -0.005  -0.002   0.001   0.000   0.000   0.000   0.000
(PID.TID 0000.0001)  12   5.946  34.900  30.300  -0.143   0.785  -0.006  -0.002   0.001   0.000   0.000   0.000   0.000
(PID.TID 0000.0001)  13   4.433  34.900  31.591  -0.132   0.786  -0.006  -0.003   0.000   0.000   0.000   0.000   0.000
(PID.TID 0000.0001)  14   3.909  34.750  32.966  -0.134   0.785  -0.006  -0.003   0.000   0.000   0.000   0.000   0.000
(PID.TID 0000.0001)  15   1.899  34.800  35.002  -0.121   0.787  -0.006  -0.003  -0.000   0.000   0.000   0.000   0.000
(PID.TID 0000.0001)  16   1.372  34.750  36.991  -0.127   0.785  -0.006  -0.003  -0.001   0.000   0.000   0.000   0.000
(PID.TID 0000.0001)  17   1.332  34.800  39.171  -0.140   0.782  -0.006  -0.003  -0.001   0.000   0.000   0.000   0.000
(PID.TID 0000.0001)  18   0.797  34.800  41.472  -0.147   0.779  -0.006  -0.003  -0.001   0.000   0.000   0.000   0.000
(PID.TID 0000.0001)  19   0.749  34.800  43.682  -0.160   0.775  -0.005  -0.002  -0.002   0.000   0.000   0.000   0.000
(PID.TID 0000.0001)  20   0.214  34.750  45.912  -0.168   0.772  -0.005  -0.002  -0.002   0.000   0.000   0.000   0.000
(PID.TID 0000.0001)  21   0.160  34.750  48.080  -0.181   0.768  -0.005  -0.002  -0.003   0.000   0.000   0.000   0.000
(PID.TID 0000.0001)  22   0.584  34.750  50.131  -0.197   0.763  -0.005  -0.002  -0.001   0.000   0.000   0.000   0.000
(PID.TID 0000.0001)  23   0.522  34.750  52.248  -0.209   0.760  -0.005  -0.002  -0.002   0.000   0.000   0.000   0.000
(PID.TID 0000.0001) rhonil =   /* Reference density ( kg/m^3 ) */
(PID.TID 0000.0001)                 9.998000000000000E+02
(PID.TID 0000.0001)     ;
(PID.TID 0000.0001) rhoConst =   /* Reference density ( kg/m^3 ) */
(PID.TID 0000.0001)                 9.998000000000000E+02
(PID.TID 0000.0001)     ;
(PID.TID 0000.0001) rhoFacC = /* normalized Reference density @ cell-Center (-) */
(PID.TID 0000.0001)    23 @  1.000000000000000E+00              /* K =  1: 23 */
(PID.TID 0000.0001)     ;
(PID.TID 0000.0001) rhoFacF = /* normalized Reference density @ W-Interface (-) */
(PID.TID 0000.0001)    24 @  1.000000000000000E+00              /* K =  1: 24 */
(PID.TID 0000.0001)     ;
(PID.TID 0000.0001) rhoConstFresh =   /* Reference density ( kg/m^3 ) */
(PID.TID 0000.0001)                 9.998000000000000E+02
(PID.TID 0000.0001)     ;
(PID.TID 0000.0001) gravity =   /* Gravitational acceleration ( m/s^2 ) */
(PID.TID 0000.0001)                 9.810000000000000E+00
(PID.TID 0000.0001)     ;
(PID.TID 0000.0001) gBaro =   /* Barotropic gravity ( m/s^2 ) */
(PID.TID 0000.0001)                 9.810000000000000E+00
(PID.TID 0000.0001)     ;
(PID.TID 0000.0001) rotationPeriod =   /* Rotation Period ( s ) */
(PID.TID 0000.0001)                 8.640000000000000E+04
(PID.TID 0000.0001)     ;
(PID.TID 0000.0001) omega =   /* Angular velocity ( rad/s ) */
(PID.TID 0000.0001)                 7.272205216643040E-05
(PID.TID 0000.0001)     ;
(PID.TID 0000.0001) f0 =   /* Reference coriolis parameter ( 1/s ) */
(PID.TID 0000.0001)                 1.000000000000000E-04
(PID.TID 0000.0001)     ;
(PID.TID 0000.0001) beta =   /* Beta ( 1/(m.s) ) */
(PID.TID 0000.0001)                 9.999999999999999E-12
(PID.TID 0000.0001)     ;
(PID.TID 0000.0001) freeSurfFac =   /* Implicit free surface factor */
(PID.TID 0000.0001)                 1.000000000000000E+00
(PID.TID 0000.0001)     ;
(PID.TID 0000.0001) implicitFreeSurface =   /* Implicit free surface on/off flag */
(PID.TID 0000.0001)                   T
(PID.TID 0000.0001)     ;
(PID.TID 0000.0001) rigidLid =   /* Rigid lid on/off flag */
(PID.TID 0000.0001)                   F
(PID.TID 0000.0001)     ;
(PID.TID 0000.0001) implicSurfPress =   /* Surface Pressure implicit factor (0-1)*/
(PID.TID 0000.0001)                 1.000000000000000E+00
(PID.TID 0000.0001)     ;
(PID.TID 0000.0001) implicDiv2Dflow =   /* Barot. Flow Div. implicit factor (0-1)*/
(PID.TID 0000.0001)                 1.000000000000000E+00
(PID.TID 0000.0001)     ;
(PID.TID 0000.0001) exactConserv =   /* Exact Volume Conservation on/off flag*/
(PID.TID 0000.0001)                   F
(PID.TID 0000.0001)     ;
(PID.TID 0000.0001) linFSConserveTr =   /* Tracer correction for Lin Free Surface on/off flag*/
(PID.TID 0000.0001)                   F
(PID.TID 0000.0001)     ;
(PID.TID 0000.0001) uniformLin_PhiSurf =   /* use uniform Bo_surf on/off flag*/
(PID.TID 0000.0001)                   T
(PID.TID 0000.0001)     ;
(PID.TID 0000.0001) nonlinFreeSurf =   /* Non-linear Free Surf. options (-1,0,1,2,3)*/
(PID.TID 0000.0001)                       0
(PID.TID 0000.0001)     ;
(PID.TID 0000.0001)      -1,0= Off ; 1,2,3= On, 2=+rescale gU,gV, 3=+update cg2d solv.
(PID.TID 0000.0001) hFacInf =   /* lower threshold for hFac (nonlinFreeSurf only)*/
(PID.TID 0000.0001)                 2.000000000000000E-01
(PID.TID 0000.0001)     ;
(PID.TID 0000.0001) hFacSup =   /* upper threshold for hFac (nonlinFreeSurf only)*/
(PID.TID 0000.0001)                 2.000000000000000E+00
(PID.TID 0000.0001)     ;
(PID.TID 0000.0001) select_rStar = /* r* Vertical coord. options (=0 r coord.; > 0 uses r*) */
(PID.TID 0000.0001)                       0
(PID.TID 0000.0001)     ;
(PID.TID 0000.0001) selectAddFluid = /* option for mass source/sink of fluid (=0: off) */
(PID.TID 0000.0001)                       0
(PID.TID 0000.0001)     ;
(PID.TID 0000.0001) useRealFreshWaterFlux = /* Real Fresh Water Flux on/off flag*/
(PID.TID 0000.0001)                   F
(PID.TID 0000.0001)     ;
(PID.TID 0000.0001) temp_EvPrRn = /* Temp. of Evap/Prec/R (UNSET=use local T)(oC)*/
(PID.TID 0000.0001)                 1.234567000000000E+05
(PID.TID 0000.0001)     ;
(PID.TID 0000.0001) salt_EvPrRn = /* Salin. of Evap/Prec/R (UNSET=use local S)(ppt)*/
(PID.TID 0000.0001)                 0.000000000000000E+00
(PID.TID 0000.0001)     ;
(PID.TID 0000.0001) convertFW2Salt = /* convert F.W. Flux to Salt Flux (-1=use local S)(ppt)*/
(PID.TID 0000.0001)                 3.500000000000000E+01
(PID.TID 0000.0001)     ;
(PID.TID 0000.0001) use3Dsolver = /* use 3-D pressure solver on/off flag */
(PID.TID 0000.0001)                   F
(PID.TID 0000.0001)     ;
(PID.TID 0000.0001) nonHydrostatic =  /* Non-Hydrostatic on/off flag */
(PID.TID 0000.0001)                   F
(PID.TID 0000.0001)     ;
(PID.TID 0000.0001) nh_Am2 = /* Non-Hydrostatic terms scaling factor */
(PID.TID 0000.0001)                 1.000000000000000E+00
(PID.TID 0000.0001)     ;
(PID.TID 0000.0001) quasiHydrostatic = /* Quasi-Hydrostatic on/off flag */
(PID.TID 0000.0001)                   F
(PID.TID 0000.0001)     ;
(PID.TID 0000.0001) momStepping =  /* Momentum equation on/off flag */
(PID.TID 0000.0001)                   T
(PID.TID 0000.0001)     ;
(PID.TID 0000.0001) vectorInvariantMomentum= /* Vector-Invariant Momentum on/off */
(PID.TID 0000.0001)                   F
(PID.TID 0000.0001)     ;
(PID.TID 0000.0001) momAdvection =  /* Momentum advection on/off flag */
(PID.TID 0000.0001)                   T
(PID.TID 0000.0001)     ;
(PID.TID 0000.0001) momViscosity =  /* Momentum viscosity on/off flag */
(PID.TID 0000.0001)                   T
(PID.TID 0000.0001)     ;
(PID.TID 0000.0001) momImplVertAdv =/* Momentum implicit vert. advection on/off*/
(PID.TID 0000.0001)                   F
(PID.TID 0000.0001)     ;
(PID.TID 0000.0001) implicitViscosity = /* Implicit viscosity on/off flag */
(PID.TID 0000.0001)                   T
(PID.TID 0000.0001)     ;
(PID.TID 0000.0001) metricTerms =  /* metric-Terms on/off flag */
(PID.TID 0000.0001)                   T
(PID.TID 0000.0001)     ;
(PID.TID 0000.0001) useNHMTerms = /* Non-Hydrostatic Metric-Terms on/off */
(PID.TID 0000.0001)                   T
(PID.TID 0000.0001)     ;
(PID.TID 0000.0001) useConstantF =  /* use Constant f0 Coriolis flag */
(PID.TID 0000.0001)                   F
(PID.TID 0000.0001)     ;
(PID.TID 0000.0001) useBetaPlaneF = /* use Beta-Plane Coriolis flag */
(PID.TID 0000.0001)                   F
(PID.TID 0000.0001)     ;
(PID.TID 0000.0001) useSphereF  =   /* use Spherical Coriolis flag */
(PID.TID 0000.0001)                   T
(PID.TID 0000.0001)     ;
(PID.TID 0000.0001) use3dCoriolis = /* 3-D Coriolis on/off flag */
(PID.TID 0000.0001)                   F
(PID.TID 0000.0001)     ;
(PID.TID 0000.0001) useCoriolis =  /* Coriolis on/off flag */
(PID.TID 0000.0001)                   T
(PID.TID 0000.0001)     ;
(PID.TID 0000.0001) useCDscheme =  /* CD scheme on/off flag */
(PID.TID 0000.0001)                   T
(PID.TID 0000.0001)     ;
(PID.TID 0000.0001) useJamartWetPoints= /* Coriolis WetPoints method flag */
(PID.TID 0000.0001)                   F
(PID.TID 0000.0001)     ;
(PID.TID 0000.0001) useJamartMomAdv= /* V.I. Non-linear terms Jamart flag */
(PID.TID 0000.0001)                   F
(PID.TID 0000.0001)     ;
(PID.TID 0000.0001) useAbsVorticity= /* Work with f+zeta in Coriolis */
(PID.TID 0000.0001)                   F
(PID.TID 0000.0001)     ;
(PID.TID 0000.0001) selectVortScheme= /* Scheme selector for Vorticity-Term */
(PID.TID 0000.0001)               123456789
(PID.TID 0000.0001)    = 0 : enstrophy (Shallow-Water Eq.) conserving scheme by Sadourny, JAS 75
(PID.TID 0000.0001)    = 1 : same as 0 with modified hFac
(PID.TID 0000.0001)    = 2 : energy conserving scheme (used by Sadourny in JAS 75 paper)
(PID.TID 0000.0001)    = 3 : energy (general) and enstrophy (2D, nonDiv.) conserving scheme
(PID.TID 0000.0001)          from Sadourny (Burridge & Haseler, ECMWF Rep.4, 1977)
(PID.TID 0000.0001)     ;
(PID.TID 0000.0001) upwindVorticity= /* Upwind bias vorticity flag */
(PID.TID 0000.0001)                   F
(PID.TID 0000.0001)     ;
(PID.TID 0000.0001) highOrderVorticity= /* High order interp. of vort. flag */
(PID.TID 0000.0001)                   F
(PID.TID 0000.0001)     ;
(PID.TID 0000.0001) upwindShear= /* Upwind vertical Shear advection flag */
(PID.TID 0000.0001)                   F
(PID.TID 0000.0001)     ;
(PID.TID 0000.0001) selectKEscheme= /* Kinetic Energy scheme selector */
(PID.TID 0000.0001)                       0
(PID.TID 0000.0001)     ;
(PID.TID 0000.0001) momForcing =  /* Momentum forcing on/off flag */
(PID.TID 0000.0001)                   T
(PID.TID 0000.0001)     ;
(PID.TID 0000.0001) momPressureForcing =  /* Momentum pressure term on/off flag */
(PID.TID 0000.0001)                   T
(PID.TID 0000.0001)     ;
(PID.TID 0000.0001) implicitIntGravWave= /* Implicit Internal Gravity Wave flag */
(PID.TID 0000.0001)                   F
(PID.TID 0000.0001)     ;
(PID.TID 0000.0001) staggerTimeStep =   /* Stagger time stepping on/off flag */
(PID.TID 0000.0001)                   F
(PID.TID 0000.0001)     ;
(PID.TID 0000.0001) multiDimAdvection =   /* enable/disable Multi-Dim Advection */
(PID.TID 0000.0001)                   T
(PID.TID 0000.0001)     ;
(PID.TID 0000.0001) useMultiDimAdvec =   /* Multi-Dim Advection is/is-not used */
(PID.TID 0000.0001)                   F
(PID.TID 0000.0001)     ;
(PID.TID 0000.0001) implicitDiffusion =/* Implicit Diffusion on/off flag */
(PID.TID 0000.0001)                   T
(PID.TID 0000.0001)     ;
(PID.TID 0000.0001) tempStepping =  /* Temperature equation on/off flag */
(PID.TID 0000.0001)                   T
(PID.TID 0000.0001)     ;
(PID.TID 0000.0001) tempAdvection=  /* Temperature advection on/off flag */
(PID.TID 0000.0001)                   T
(PID.TID 0000.0001)     ;
(PID.TID 0000.0001) tempImplVertAdv =/* Temp. implicit vert. advection on/off */
(PID.TID 0000.0001)                   F
(PID.TID 0000.0001)     ;
(PID.TID 0000.0001) tempForcing  =  /* Temperature forcing on/off flag */
(PID.TID 0000.0001)                   T
(PID.TID 0000.0001)     ;
(PID.TID 0000.0001) tempIsActiveTr = /* Temp. is a dynamically Active Tracer */
(PID.TID 0000.0001)                   T
(PID.TID 0000.0001)     ;
(PID.TID 0000.0001) saltStepping =  /* Salinity equation on/off flag */
(PID.TID 0000.0001)                   T
(PID.TID 0000.0001)     ;
(PID.TID 0000.0001) saltAdvection=  /* Salinity advection on/off flag */
(PID.TID 0000.0001)                   T
(PID.TID 0000.0001)     ;
(PID.TID 0000.0001) saltImplVertAdv =/* Sali. implicit vert. advection on/off */
(PID.TID 0000.0001)                   F
(PID.TID 0000.0001)     ;
(PID.TID 0000.0001) saltForcing  =  /* Salinity forcing on/off flag */
(PID.TID 0000.0001)                   T
(PID.TID 0000.0001)     ;
(PID.TID 0000.0001) saltIsActiveTr = /* Salt  is a dynamically Active Tracer */
(PID.TID 0000.0001)                   T
(PID.TID 0000.0001)     ;
(PID.TID 0000.0001)  readBinaryPrec = /* Precision used for reading binary files */
(PID.TID 0000.0001)                      32
(PID.TID 0000.0001)     ;
(PID.TID 0000.0001) writeBinaryPrec = /* Precision used for writing binary files */
(PID.TID 0000.0001)                      64
(PID.TID 0000.0001)     ;
(PID.TID 0000.0001)  globalFiles = /* write "global" (=not per tile) files */
(PID.TID 0000.0001)                   T
(PID.TID 0000.0001)     ;
(PID.TID 0000.0001)  useSingleCpuIO = /* only master MPI process does I/O */
(PID.TID 0000.0001)                   F
(PID.TID 0000.0001)     ;
(PID.TID 0000.0001)  debugMode  =  /* Debug Mode on/off flag */
(PID.TID 0000.0001)                   F
(PID.TID 0000.0001)     ;
(PID.TID 0000.0001)    debLevA  =  /* 1rst level of debugging */
(PID.TID 0000.0001)                       1
(PID.TID 0000.0001)     ;
(PID.TID 0000.0001)    debLevB  =  /* 2nd  level of debugging */
(PID.TID 0000.0001)                       2
(PID.TID 0000.0001)     ;
(PID.TID 0000.0001)  debugLevel =  /* select debugging level */
(PID.TID 0000.0001)                       1
(PID.TID 0000.0001)     ;
(PID.TID 0000.0001) //
(PID.TID 0000.0001) // Elliptic solver(s) paramters ( PARM02 in namelist )
(PID.TID 0000.0001) //
(PID.TID 0000.0001) cg2dMaxIters =   /* Upper limit on 2d con. grad iterations  */
(PID.TID 0000.0001)                    1000
(PID.TID 0000.0001)     ;
(PID.TID 0000.0001) cg2dChkResFreq =   /* 2d con. grad convergence test frequency */
(PID.TID 0000.0001)                       1
(PID.TID 0000.0001)     ;
(PID.TID 0000.0001) cg2dTargetResidual =   /* 2d con. grad target residual  */
(PID.TID 0000.0001)                 1.000000000000000E-13
(PID.TID 0000.0001)     ;
(PID.TID 0000.0001) cg2dTargetResWunit =   /* CG2d target residual [W units] */
(PID.TID 0000.0001)                -1.000000000000000E+00
(PID.TID 0000.0001)     ;
(PID.TID 0000.0001) cg2dPreCondFreq =   /* Freq. for updating cg2d preconditioner */
(PID.TID 0000.0001)                       1
(PID.TID 0000.0001)     ;
(PID.TID 0000.0001) //
(PID.TID 0000.0001) // Time stepping paramters ( PARM03 in namelist )
(PID.TID 0000.0001) //
(PID.TID 0000.0001) deltaTmom =   /* Momentum equation timestep ( s ) */
(PID.TID 0000.0001)                 3.600000000000000E+03
(PID.TID 0000.0001)     ;
(PID.TID 0000.0001) deltaTfreesurf = /* FreeSurface equation timestep ( s ) */
(PID.TID 0000.0001)                 3.600000000000000E+03
(PID.TID 0000.0001)     ;
(PID.TID 0000.0001) dTtracerLev =  /* Tracer equation timestep ( s ) */
(PID.TID 0000.0001)    23 @  3.600000000000000E+03              /* K =  1: 23 */
(PID.TID 0000.0001)     ;
(PID.TID 0000.0001) deltaTClock  =   /* Model clock timestep ( s ) */
(PID.TID 0000.0001)                 3.600000000000000E+03
(PID.TID 0000.0001)     ;
(PID.TID 0000.0001) cAdjFreq =   /* Convective adjustment interval ( s ) */
(PID.TID 0000.0001)                 0.000000000000000E+00
(PID.TID 0000.0001)     ;
(PID.TID 0000.0001) momForcingOutAB = /* =1: take Momentum Forcing out of Adams-Bash. stepping */
(PID.TID 0000.0001)                       0
(PID.TID 0000.0001)     ;
(PID.TID 0000.0001) tracForcingOutAB = /* =1: take T,S,pTr Forcing out of Adams-Bash. stepping */
(PID.TID 0000.0001)                       0
(PID.TID 0000.0001)     ;
(PID.TID 0000.0001) momDissip_In_AB = /* put Dissipation Tendency in Adams-Bash. stepping */
(PID.TID 0000.0001)                   T
(PID.TID 0000.0001)     ;
(PID.TID 0000.0001) doAB_onGtGs = /* apply AB on Tendencies (rather than on T,S)*/
(PID.TID 0000.0001)                   T
(PID.TID 0000.0001)     ;
(PID.TID 0000.0001) abEps =   /* Adams-Bashforth-2 stabilizing weight */
(PID.TID 0000.0001)                 1.000000000000000E-01
(PID.TID 0000.0001)     ;
(PID.TID 0000.0001) tauCD =   /* CD coupling time-scale ( s ) */
(PID.TID 0000.0001)                 1.728000000000000E+05
(PID.TID 0000.0001)     ;
(PID.TID 0000.0001) rCD =   /* Normalised CD coupling parameter */
(PID.TID 0000.0001)                 9.791666666666666E-01
(PID.TID 0000.0001)     ;
(PID.TID 0000.0001) pickupStrictlyMatch= /* stop if pickup do not strictly match */
(PID.TID 0000.0001)                   T
(PID.TID 0000.0001)     ;
(PID.TID 0000.0001) nIter0 =   /* Run starting timestep number  */
(PID.TID 0000.0001)                       0
(PID.TID 0000.0001)     ;
(PID.TID 0000.0001) nTimeSteps =   /* Number of timesteps */
(PID.TID 0000.0001)                      21
(PID.TID 0000.0001)     ;
(PID.TID 0000.0001) baseTime =   /* Model base time ( s ). */
(PID.TID 0000.0001)                 2.160000000000000E+04
(PID.TID 0000.0001)     ;
(PID.TID 0000.0001) startTime =   /* Run start time ( s ). */
(PID.TID 0000.0001)                 2.160000000000000E+04
(PID.TID 0000.0001)     ;
(PID.TID 0000.0001) endTime =   /* Integration ending time ( s ). */
(PID.TID 0000.0001)                 9.720000000000000E+04
(PID.TID 0000.0001)     ;
(PID.TID 0000.0001) pChkPtFreq =   /* Permanent restart/checkpoint file interval ( s ). */
(PID.TID 0000.0001)                 0.000000000000000E+00
(PID.TID 0000.0001)     ;
(PID.TID 0000.0001) chkPtFreq =   /* Rolling restart/checkpoint file interval ( s ). */
(PID.TID 0000.0001)                 0.000000000000000E+00
(PID.TID 0000.0001)     ;
(PID.TID 0000.0001) pickup_write_mdsio =   /* Model IO flag. */
(PID.TID 0000.0001)                   T
(PID.TID 0000.0001)     ;
(PID.TID 0000.0001) pickup_read_mdsio =   /* Model IO flag. */
(PID.TID 0000.0001)                   T
(PID.TID 0000.0001)     ;
(PID.TID 0000.0001) pickup_write_immed =   /* Model IO flag. */
(PID.TID 0000.0001)                   F
(PID.TID 0000.0001)     ;
(PID.TID 0000.0001) writePickupAtEnd =   /* Model IO flag. */
(PID.TID 0000.0001)                   T
(PID.TID 0000.0001)     ;
(PID.TID 0000.0001) dumpFreq =   /* Model state write out interval ( s ). */
(PID.TID 0000.0001)                 8.640000000000000E+04
(PID.TID 0000.0001)     ;
(PID.TID 0000.0001) dumpInitAndLast= /* write out Initial & Last iter. model state */
(PID.TID 0000.0001)                   T
(PID.TID 0000.0001)     ;
(PID.TID 0000.0001) snapshot_mdsio =   /* Model IO flag. */
(PID.TID 0000.0001)                   T
(PID.TID 0000.0001)     ;
(PID.TID 0000.0001) monitorFreq =   /* Monitor output interval ( s ). */
(PID.TID 0000.0001)                 1.000000000000000E+00
(PID.TID 0000.0001)     ;
(PID.TID 0000.0001) monitorSelect = /* select group of variables to monitor */
(PID.TID 0000.0001)                       3
(PID.TID 0000.0001)     ;
(PID.TID 0000.0001) monitor_stdio =   /* Model IO flag. */
(PID.TID 0000.0001)                   T
(PID.TID 0000.0001)     ;
(PID.TID 0000.0001) externForcingPeriod =   /* forcing period (s) */
(PID.TID 0000.0001)                 4.320000000000000E+04
(PID.TID 0000.0001)     ;
(PID.TID 0000.0001) externForcingCycle =   /* period of the cyle (s). */
(PID.TID 0000.0001)                 2.764800000000000E+06
(PID.TID 0000.0001)     ;
(PID.TID 0000.0001) tauThetaClimRelax =   /* relaxation time scale (s) */
(PID.TID 0000.0001)                 2.592000000000000E+06
(PID.TID 0000.0001)     ;
(PID.TID 0000.0001) tauSaltClimRelax =   /* relaxation time scale (s) */
(PID.TID 0000.0001)                 2.592000000000000E+06
(PID.TID 0000.0001)     ;
(PID.TID 0000.0001) latBandClimRelax =   /* max. Lat. where relaxation */
(PID.TID 0000.0001)                 1.800000000000000E+02
(PID.TID 0000.0001)     ;
(PID.TID 0000.0001) //
(PID.TID 0000.0001) // Gridding paramters ( PARM04 in namelist )
(PID.TID 0000.0001) //
(PID.TID 0000.0001) usingCartesianGrid = /* Cartesian coordinates flag ( True/False ) */
(PID.TID 0000.0001)                   F
(PID.TID 0000.0001)     ;
(PID.TID 0000.0001) usingCylindricalGrid = /* Cylindrical coordinates flag ( True/False ) */
(PID.TID 0000.0001)                   F
(PID.TID 0000.0001)     ;
(PID.TID 0000.0001) usingSphericalPolarGrid = /* Spherical coordinates flag ( True/False ) */
(PID.TID 0000.0001)                   T
(PID.TID 0000.0001)     ;
(PID.TID 0000.0001) usingCurvilinearGrid = /* Curvilinear coordinates flag ( True/False ) */
(PID.TID 0000.0001)                   F
(PID.TID 0000.0001)     ;
(PID.TID 0000.0001) Ro_SeaLevel = /* r(1) ( units of r ==  m ) */
(PID.TID 0000.0001)                 0.000000000000000E+00
(PID.TID 0000.0001)     ;
(PID.TID 0000.0001) rkSign =   /* index orientation relative to vertical coordinate */
(PID.TID 0000.0001)                -1.000000000000000E+00
(PID.TID 0000.0001)     ;
(PID.TID 0000.0001) gravitySign = /* gravity orientation relative to vertical coordinate */
(PID.TID 0000.0001)                -1.000000000000000E+00
(PID.TID 0000.0001)     ;
(PID.TID 0000.0001) mass2rUnit = /* convert mass per unit area [kg/m2] to r-units [m] */
(PID.TID 0000.0001)                 1.000200040008002E-03
(PID.TID 0000.0001)     ;
(PID.TID 0000.0001) rUnit2mass = /* convert r-units [m] to mass per unit area [kg/m2] */
(PID.TID 0000.0001)                 9.998000000000000E+02
(PID.TID 0000.0001)     ;
(PID.TID 0000.0001) drC =   /* C spacing ( units of r ) */
(PID.TID 0000.0001)                 5.000000000000000E+00,      /* K =  1 */
(PID.TID 0000.0001)                 1.000000000000000E+01,      /* K =  2 */
(PID.TID 0000.0001)                 1.250000000000000E+01,      /* K =  3 */
(PID.TID 0000.0001)                 1.750000000000000E+01,      /* K =  4 */
(PID.TID 0000.0001)                 2.000000000000000E+01,      /* K =  5 */
(PID.TID 0000.0001)                 2.250000000000000E+01,      /* K =  6 */
(PID.TID 0000.0001)                 3.000000000000000E+01,      /* K =  7 */
(PID.TID 0000.0001)                 4.250000000000000E+01,      /* K =  8 */
(PID.TID 0000.0001)                 6.250000000000000E+01,      /* K =  9 */
(PID.TID 0000.0001)                 8.750000000000000E+01,      /* K = 10 */
(PID.TID 0000.0001)                 1.250000000000000E+02,      /* K = 11 */
(PID.TID 0000.0001)                 1.750000000000000E+02,      /* K = 12 */
(PID.TID 0000.0001)                 2.375000000000000E+02,      /* K = 13 */
(PID.TID 0000.0001)                 3.125000000000000E+02,      /* K = 14 */
(PID.TID 0000.0001)                 3.825000000000000E+02,      /* K = 15 */
(PID.TID 0000.0001)                 4.325000000000000E+02,      /* K = 16 */
(PID.TID 0000.0001)                 4.750000000000000E+02,      /* K = 17 */
(PID.TID 0000.0001)     6 @  5.000000000000000E+02              /* K = 18: 23 */
(PID.TID 0000.0001)     ;
(PID.TID 0000.0001) drF =   /* W spacing ( units of r ) */
(PID.TID 0000.0001)     2 @  1.000000000000000E+01,             /* K =  1:  2 */
(PID.TID 0000.0001)                 1.500000000000000E+01,      /* K =  3 */
(PID.TID 0000.0001)     2 @  2.000000000000000E+01,             /* K =  4:  5 */
(PID.TID 0000.0001)                 2.500000000000000E+01,      /* K =  6 */
(PID.TID 0000.0001)                 3.500000000000000E+01,      /* K =  7 */
(PID.TID 0000.0001)                 5.000000000000000E+01,      /* K =  8 */
(PID.TID 0000.0001)                 7.500000000000000E+01,      /* K =  9 */
(PID.TID 0000.0001)                 1.000000000000000E+02,      /* K = 10 */
(PID.TID 0000.0001)                 1.500000000000000E+02,      /* K = 11 */
(PID.TID 0000.0001)                 2.000000000000000E+02,      /* K = 12 */
(PID.TID 0000.0001)                 2.750000000000000E+02,      /* K = 13 */
(PID.TID 0000.0001)                 3.500000000000000E+02,      /* K = 14 */
(PID.TID 0000.0001)                 4.150000000000000E+02,      /* K = 15 */
(PID.TID 0000.0001)                 4.500000000000000E+02,      /* K = 16 */
(PID.TID 0000.0001)     7 @  5.000000000000000E+02              /* K = 17: 23 */
(PID.TID 0000.0001)     ;
(PID.TID 0000.0001) delX = /* U spacing ( m - cartesian, degrees - spherical ) */
(PID.TID 0000.0001)    20 @  2.000000000000000E+00              /* I =  1: 20 */
(PID.TID 0000.0001)     ;
(PID.TID 0000.0001) delY = /* V spacing ( m - cartesian, degrees - spherical ) */
(PID.TID 0000.0001)    16 @  2.000000000000000E+00              /* J =  1: 16 */
(PID.TID 0000.0001)     ;
(PID.TID 0000.0001) xgOrigin = /* X-axis origin of West  edge (cartesian: m, lat-lon: deg.) */
(PID.TID 0000.0001)                -4.200000000000000E+01
(PID.TID 0000.0001)     ;
(PID.TID 0000.0001) ygOrigin = /* Y-axis origin of South edge (cartesian: m, lat-lon: deg.) */
(PID.TID 0000.0001)                 1.000000000000000E+01
(PID.TID 0000.0001)     ;
(PID.TID 0000.0001) rSphere =  /* Radius ( ignored - cartesian, m - spherical ) */
(PID.TID 0000.0001)                 6.370000000000000E+06
(PID.TID 0000.0001)     ;
(PID.TID 0000.0001) deepAtmosphere = /* Deep/Shallow Atmosphere flag (True/False) */
(PID.TID 0000.0001)                   F
(PID.TID 0000.0001)     ;
(PID.TID 0000.0001) xC =  /* xC(:,1,:,1) : P-point X coord ( deg. or m if cartesian) */
(PID.TID 0000.0001)                -4.100000000000000E+01,      /* I =  1 */
(PID.TID 0000.0001)                -3.900000000000000E+01,      /* I =  2 */
(PID.TID 0000.0001)                -3.700000000000000E+01,      /* I =  3 */
(PID.TID 0000.0001)                -3.500000000000000E+01,      /* I =  4 */
(PID.TID 0000.0001)                -3.300000000000000E+01,      /* I =  5 */
(PID.TID 0000.0001)                -3.100000000000000E+01,      /* I =  6 */
(PID.TID 0000.0001)                -2.900000000000000E+01,      /* I =  7 */
(PID.TID 0000.0001)                -2.700000000000000E+01,      /* I =  8 */
(PID.TID 0000.0001)                -2.500000000000000E+01,      /* I =  9 */
(PID.TID 0000.0001)                -2.300000000000000E+01,      /* I = 10 */
(PID.TID 0000.0001)                -2.100000000000000E+01,      /* I = 11 */
(PID.TID 0000.0001)                -1.900000000000000E+01,      /* I = 12 */
(PID.TID 0000.0001)                -1.700000000000000E+01,      /* I = 13 */
(PID.TID 0000.0001)                -1.500000000000000E+01,      /* I = 14 */
(PID.TID 0000.0001)                -1.300000000000000E+01,      /* I = 15 */
(PID.TID 0000.0001)                -1.100000000000000E+01,      /* I = 16 */
(PID.TID 0000.0001)                -9.000000000000000E+00,      /* I = 17 */
(PID.TID 0000.0001)                -7.000000000000000E+00,      /* I = 18 */
(PID.TID 0000.0001)                -5.000000000000000E+00,      /* I = 19 */
(PID.TID 0000.0001)                -3.000000000000000E+00       /* I = 20 */
(PID.TID 0000.0001)     ;
(PID.TID 0000.0001) yC =  /* yC(1,:,1,:) : P-point Y coord ( deg. or m if cartesian) */
(PID.TID 0000.0001)                 1.100000000000000E+01,      /* J =  1 */
(PID.TID 0000.0001)                 1.300000000000000E+01,      /* J =  2 */
(PID.TID 0000.0001)                 1.500000000000000E+01,      /* J =  3 */
(PID.TID 0000.0001)                 1.700000000000000E+01,      /* J =  4 */
(PID.TID 0000.0001)                 1.900000000000000E+01,      /* J =  5 */
(PID.TID 0000.0001)                 2.100000000000000E+01,      /* J =  6 */
(PID.TID 0000.0001)                 2.300000000000000E+01,      /* J =  7 */
(PID.TID 0000.0001)                 2.500000000000000E+01,      /* J =  8 */
(PID.TID 0000.0001)                 2.700000000000000E+01,      /* J =  9 */
(PID.TID 0000.0001)                 2.900000000000000E+01,      /* J = 10 */
(PID.TID 0000.0001)                 3.100000000000000E+01,      /* J = 11 */
(PID.TID 0000.0001)                 3.300000000000000E+01,      /* J = 12 */
(PID.TID 0000.0001)                 3.500000000000000E+01,      /* J = 13 */
(PID.TID 0000.0001)                 3.700000000000000E+01,      /* J = 14 */
(PID.TID 0000.0001)                 3.900000000000000E+01,      /* J = 15 */
(PID.TID 0000.0001)                 4.100000000000000E+01       /* J = 16 */
(PID.TID 0000.0001)     ;
(PID.TID 0000.0001) rcoord = /* P-point R coordinate (  units of r ) */
(PID.TID 0000.0001)                -5.000000000000000E+00,      /* K =  1 */
(PID.TID 0000.0001)                -1.500000000000000E+01,      /* K =  2 */
(PID.TID 0000.0001)                -2.750000000000000E+01,      /* K =  3 */
(PID.TID 0000.0001)                -4.500000000000000E+01,      /* K =  4 */
(PID.TID 0000.0001)                -6.500000000000000E+01,      /* K =  5 */
(PID.TID 0000.0001)                -8.750000000000000E+01,      /* K =  6 */
(PID.TID 0000.0001)                -1.175000000000000E+02,      /* K =  7 */
(PID.TID 0000.0001)                -1.600000000000000E+02,      /* K =  8 */
(PID.TID 0000.0001)                -2.225000000000000E+02,      /* K =  9 */
(PID.TID 0000.0001)                -3.100000000000000E+02,      /* K = 10 */
(PID.TID 0000.0001)                -4.350000000000000E+02,      /* K = 11 */
(PID.TID 0000.0001)                -6.100000000000000E+02,      /* K = 12 */
(PID.TID 0000.0001)                -8.475000000000000E+02,      /* K = 13 */
(PID.TID 0000.0001)                -1.160000000000000E+03,      /* K = 14 */
(PID.TID 0000.0001)                -1.542500000000000E+03,      /* K = 15 */
(PID.TID 0000.0001)                -1.975000000000000E+03,      /* K = 16 */
(PID.TID 0000.0001)                -2.450000000000000E+03,      /* K = 17 */
(PID.TID 0000.0001)                -2.950000000000000E+03,      /* K = 18 */
(PID.TID 0000.0001)                -3.450000000000000E+03,      /* K = 19 */
(PID.TID 0000.0001)                -3.950000000000000E+03,      /* K = 20 */
(PID.TID 0000.0001)                -4.450000000000000E+03,      /* K = 21 */
(PID.TID 0000.0001)                -4.950000000000000E+03,      /* K = 22 */
(PID.TID 0000.0001)                -5.450000000000000E+03       /* K = 23 */
(PID.TID 0000.0001)     ;
(PID.TID 0000.0001) rF =   /* W-Interf. R coordinate (  units of r ) */
(PID.TID 0000.0001)                 0.000000000000000E+00,      /* K =  1 */
(PID.TID 0000.0001)                -1.000000000000000E+01,      /* K =  2 */
(PID.TID 0000.0001)                -2.000000000000000E+01,      /* K =  3 */
(PID.TID 0000.0001)                -3.500000000000000E+01,      /* K =  4 */
(PID.TID 0000.0001)                -5.500000000000000E+01,      /* K =  5 */
(PID.TID 0000.0001)                -7.500000000000000E+01,      /* K =  6 */
(PID.TID 0000.0001)                -1.000000000000000E+02,      /* K =  7 */
(PID.TID 0000.0001)                -1.350000000000000E+02,      /* K =  8 */
(PID.TID 0000.0001)                -1.850000000000000E+02,      /* K =  9 */
(PID.TID 0000.0001)                -2.600000000000000E+02,      /* K = 10 */
(PID.TID 0000.0001)                -3.600000000000000E+02,      /* K = 11 */
(PID.TID 0000.0001)                -5.100000000000000E+02,      /* K = 12 */
(PID.TID 0000.0001)                -7.100000000000000E+02,      /* K = 13 */
(PID.TID 0000.0001)                -9.850000000000000E+02,      /* K = 14 */
(PID.TID 0000.0001)                -1.335000000000000E+03,      /* K = 15 */
(PID.TID 0000.0001)                -1.750000000000000E+03,      /* K = 16 */
(PID.TID 0000.0001)                -2.200000000000000E+03,      /* K = 17 */
(PID.TID 0000.0001)                -2.700000000000000E+03,      /* K = 18 */
(PID.TID 0000.0001)                -3.200000000000000E+03,      /* K = 19 */
(PID.TID 0000.0001)                -3.700000000000000E+03,      /* K = 20 */
(PID.TID 0000.0001)                -4.200000000000000E+03,      /* K = 21 */
(PID.TID 0000.0001)                -4.700000000000000E+03,      /* K = 22 */
(PID.TID 0000.0001)                -5.200000000000000E+03,      /* K = 23 */
(PID.TID 0000.0001)                -5.700000000000000E+03       /* K = 24 */
(PID.TID 0000.0001)     ;
(PID.TID 0000.0001) deepFacC = /* deep-model grid factor @ cell-Center (-) */
(PID.TID 0000.0001)    23 @  1.000000000000000E+00              /* K =  1: 23 */
(PID.TID 0000.0001)     ;
(PID.TID 0000.0001) deepFacF = /* deep-model grid factor @ W-Interface (-) */
(PID.TID 0000.0001)    24 @  1.000000000000000E+00              /* K =  1: 24 */
(PID.TID 0000.0001)     ;
(PID.TID 0000.0001) rVel2wUnit = /* convert units: rVel -> wSpeed (=1 if z-coord)*/
(PID.TID 0000.0001)    24 @  1.000000000000000E+00              /* K =  1: 24 */
(PID.TID 0000.0001)     ;
(PID.TID 0000.0001) wUnit2rVel = /* convert units: wSpeed -> rVel (=1 if z-coord)*/
(PID.TID 0000.0001)    24 @  1.000000000000000E+00              /* K =  1: 24 */
(PID.TID 0000.0001)     ;
(PID.TID 0000.0001) dBdrRef = /* Vertical gradient of reference boyancy [(m/s/r)^2)] */
(PID.TID 0000.0001)    23 @  0.000000000000000E+00              /* K =  1: 23 */
(PID.TID 0000.0001)     ;
(PID.TID 0000.0001) rotateGrid = /* use rotated grid ( True/False ) */
(PID.TID 0000.0001)                   F
(PID.TID 0000.0001)     ;
(PID.TID 0000.0001) phiEuler = /* Euler angle, rotation about original z-coordinate [rad] */
(PID.TID 0000.0001)                 0.000000000000000E+00
(PID.TID 0000.0001)     ;
(PID.TID 0000.0001) thetaEuler = /* Euler angle, rotation about new x-coordinate [rad] */
(PID.TID 0000.0001)                 0.000000000000000E+00
(PID.TID 0000.0001)     ;
(PID.TID 0000.0001) psiEuler = /* Euler angle, rotation about new z-coordinate [rad] */
(PID.TID 0000.0001)                 0.000000000000000E+00
(PID.TID 0000.0001)     ;
(PID.TID 0000.0001) dxF =  /* dxF(:,1,:,1) ( units: m ) */
(PID.TID 0000.0001)    20 @  2.182696600587791E+05              /* I =  1: 20 */
(PID.TID 0000.0001)     ;
(PID.TID 0000.0001) dxF =  /* dxF(1,:,1,:) ( units: m ) */
(PID.TID 0000.0001)                 2.182696600587791E+05,      /* J =  1 */
(PID.TID 0000.0001)                 2.166560038253696E+05,      /* J =  2 */
(PID.TID 0000.0001)                 2.147783856245979E+05,      /* J =  3 */
(PID.TID 0000.0001)                 2.126390930450167E+05,      /* J =  4 */
(PID.TID 0000.0001)                 2.102407324851014E+05,      /* J =  5 */
(PID.TID 0000.0001)                 2.075862259777553E+05,      /* J =  6 */
(PID.TID 0000.0001)                 2.046788076302621E+05,      /* J =  7 */
(PID.TID 0000.0001)                 2.015220196840248E+05,      /* J =  8 */
(PID.TID 0000.0001)                 1.981197081988899E+05,      /* J =  9 */
(PID.TID 0000.0001)                 1.944760183673163E+05,      /* J = 10 */
(PID.TID 0000.0001)                 1.905953894640962E+05,      /* J = 11 */
(PID.TID 0000.0001)                 1.864825494377832E+05,      /* J = 12 */
(PID.TID 0000.0001)                 1.821425091504150E+05,      /* J = 13 */
(PID.TID 0000.0001)                 1.775805562725496E+05,      /* J = 14 */
(PID.TID 0000.0001)                 1.728022488410539E+05,      /* J = 15 */
(PID.TID 0000.0001)                 1.678134084874913E+05       /* J = 16 */
(PID.TID 0000.0001)     ;
(PID.TID 0000.0001) dyF =  /* dyF(:,1,:,1) ( units: m ) */
(PID.TID 0000.0001)    20 @  2.223549467040776E+05              /* I =  1: 20 */
(PID.TID 0000.0001)     ;
(PID.TID 0000.0001) dyF =  /* dyF(1,:,1,:) ( units: m ) */
(PID.TID 0000.0001)    16 @  2.223549467040776E+05              /* J =  1: 16 */
(PID.TID 0000.0001)     ;
(PID.TID 0000.0001) dxG =  /* dxG(:,1,:,1) ( units: m ) */
(PID.TID 0000.0001)    20 @  2.189768754347919E+05              /* I =  1: 20 */
(PID.TID 0000.0001)     ;
(PID.TID 0000.0001) dxG =  /* dxG(1,:,1,:) ( units: m ) */
(PID.TID 0000.0001)                 2.189768754347919E+05,      /* J =  1 */
(PID.TID 0000.0001)                 2.174959576298867E+05,      /* J =  2 */
(PID.TID 0000.0001)                 2.157500545032935E+05,      /* J =  3 */
(PID.TID 0000.0001)                 2.137412931690361E+05,      /* J =  4 */
(PID.TID 0000.0001)                 2.114721209933746E+05,      /* J =  5 */
(PID.TID 0000.0001)                 2.089453026130656E+05,      /* J =  6 */
(PID.TID 0000.0001)                 2.061639165670793E+05,      /* J =  7 */
(PID.TID 0000.0001)                 2.031313515458727E+05,      /* J =  8 */
(PID.TID 0000.0001)                 1.998513022627935E+05,      /* J =  9 */
(PID.TID 0000.0001)                 1.963277649526403E+05,      /* J = 10 */
(PID.TID 0000.0001)                 1.925650325028661E+05,      /* J = 11 */
(PID.TID 0000.0001)                 1.885676892233566E+05,      /* J = 12 */
(PID.TID 0000.0001)                 1.843406052611541E+05,      /* J = 13 */
(PID.TID 0000.0001)                 1.798889306669345E+05,      /* J = 14 */
(PID.TID 0000.0001)                 1.752180891204627E+05,      /* J = 15 */
(PID.TID 0000.0001)                 1.703337713226751E+05       /* J = 16 */
(PID.TID 0000.0001)     ;
(PID.TID 0000.0001) dyG =  /* dyG(:,1,:,1) ( units: m ) */
(PID.TID 0000.0001)    20 @  2.223549467040776E+05              /* I =  1: 20 */
(PID.TID 0000.0001)     ;
(PID.TID 0000.0001) dyG =  /* dyG(1,:,1,:) ( units: m ) */
(PID.TID 0000.0001)    16 @  2.223549467040776E+05              /* J =  1: 16 */
(PID.TID 0000.0001)     ;
(PID.TID 0000.0001) dxC =  /* dxC(:,1,:,1) ( units: m ) */
(PID.TID 0000.0001)    20 @  2.182696600587791E+05              /* I =  1: 20 */
(PID.TID 0000.0001)     ;
(PID.TID 0000.0001) dxC =  /* dxC(1,:,1,:) ( units: m ) */
(PID.TID 0000.0001)                 2.182696600587791E+05,      /* J =  1 */
(PID.TID 0000.0001)                 2.166560038253696E+05,      /* J =  2 */
(PID.TID 0000.0001)                 2.147783856245979E+05,      /* J =  3 */
(PID.TID 0000.0001)                 2.126390930450167E+05,      /* J =  4 */
(PID.TID 0000.0001)                 2.102407324851014E+05,      /* J =  5 */
(PID.TID 0000.0001)                 2.075862259777553E+05,      /* J =  6 */
(PID.TID 0000.0001)                 2.046788076302621E+05,      /* J =  7 */
(PID.TID 0000.0001)                 2.015220196840248E+05,      /* J =  8 */
(PID.TID 0000.0001)                 1.981197081988899E+05,      /* J =  9 */
(PID.TID 0000.0001)                 1.944760183673163E+05,      /* J = 10 */
(PID.TID 0000.0001)                 1.905953894640962E+05,      /* J = 11 */
(PID.TID 0000.0001)                 1.864825494377832E+05,      /* J = 12 */
(PID.TID 0000.0001)                 1.821425091504150E+05,      /* J = 13 */
(PID.TID 0000.0001)                 1.775805562725496E+05,      /* J = 14 */
(PID.TID 0000.0001)                 1.728022488410539E+05,      /* J = 15 */
(PID.TID 0000.0001)                 1.678134084874913E+05       /* J = 16 */
(PID.TID 0000.0001)     ;
(PID.TID 0000.0001) dyC =  /* dyC(:,1,:,1) ( units: m ) */
(PID.TID 0000.0001)    20 @  2.223549467040776E+05              /* I =  1: 20 */
(PID.TID 0000.0001)     ;
(PID.TID 0000.0001) dyC =  /* dyC(1,:,1,:) ( units: m ) */
(PID.TID 0000.0001)    16 @  2.223549467040776E+05              /* J =  1: 16 */
(PID.TID 0000.0001)     ;
(PID.TID 0000.0001) dxV =  /* dxV(:,1,:,1) ( units: m ) */
(PID.TID 0000.0001)    20 @  2.189768754347919E+05              /* I =  1: 20 */
(PID.TID 0000.0001)     ;
(PID.TID 0000.0001) dxV =  /* dxV(1,:,1,:) ( units: m ) */
(PID.TID 0000.0001)                 2.189768754347919E+05,      /* J =  1 */
(PID.TID 0000.0001)                 2.174959576298867E+05,      /* J =  2 */
(PID.TID 0000.0001)                 2.157500545032935E+05,      /* J =  3 */
(PID.TID 0000.0001)                 2.137412931690361E+05,      /* J =  4 */
(PID.TID 0000.0001)                 2.114721209933746E+05,      /* J =  5 */
(PID.TID 0000.0001)                 2.089453026130656E+05,      /* J =  6 */
(PID.TID 0000.0001)                 2.061639165670793E+05,      /* J =  7 */
(PID.TID 0000.0001)                 2.031313515458727E+05,      /* J =  8 */
(PID.TID 0000.0001)                 1.998513022627935E+05,      /* J =  9 */
(PID.TID 0000.0001)                 1.963277649526403E+05,      /* J = 10 */
(PID.TID 0000.0001)                 1.925650325028661E+05,      /* J = 11 */
(PID.TID 0000.0001)                 1.885676892233566E+05,      /* J = 12 */
(PID.TID 0000.0001)                 1.843406052611541E+05,      /* J = 13 */
(PID.TID 0000.0001)                 1.798889306669345E+05,      /* J = 14 */
(PID.TID 0000.0001)                 1.752180891204627E+05,      /* J = 15 */
(PID.TID 0000.0001)                 1.703337713226751E+05       /* J = 16 */
(PID.TID 0000.0001)     ;
(PID.TID 0000.0001) dyU =  /* dyU(:,1,:,1) ( units: m ) */
(PID.TID 0000.0001)    20 @  2.223549467040776E+05              /* I =  1: 20 */
(PID.TID 0000.0001)     ;
(PID.TID 0000.0001) dyU =  /* dyU(1,:,1,:) ( units: m ) */
(PID.TID 0000.0001)    16 @  2.223549467040776E+05              /* J =  1: 16 */
(PID.TID 0000.0001)     ;
(PID.TID 0000.0001) rA  =  /* rA (:,1,:,1) ( units: m^2 ) */
(PID.TID 0000.0001)    20 @  4.853087465028468E+10              /* I =  1: 20 */
(PID.TID 0000.0001)     ;
(PID.TID 0000.0001) rA  =  /* rA (1,:,1,:) ( units: m^2 ) */
(PID.TID 0000.0001)                 4.853087465028468E+10,      /* J =  1 */
(PID.TID 0000.0001)                 4.817208842057614E+10,      /* J =  2 */
(PID.TID 0000.0001)                 4.775461192146850E+10,      /* J =  3 */
(PID.TID 0000.0001)                 4.727895378376868E+10,      /* J =  4 */
(PID.TID 0000.0001)                 4.674569352364785E+10,      /* J =  5 */
(PID.TID 0000.0001)                 4.615548083659052E+10,      /* J =  6 */
(PID.TID 0000.0001)                 4.550903480584064E+10,      /* J =  7 */
(PID.TID 0000.0001)                 4.480714302630917E+10,      /* J =  8 */
(PID.TID 0000.0001)                 4.405066064501157E+10,      /* J =  9 */
(PID.TID 0000.0001)                 4.324050931920184E+10,      /* J = 10 */
(PID.TID 0000.0001)                 4.237767609347683E+10,      /* J = 11 */
(PID.TID 0000.0001)                 4.146321219721255E+10,      /* J = 12 */
(PID.TID 0000.0001)                 4.049823176380374E+10,      /* J = 13 */
(PID.TID 0000.0001)                 3.948391047326549E+10,      /* J = 14 */
(PID.TID 0000.0001)                 3.842148411984549E+10,      /* J = 15 */
(PID.TID 0000.0001)                 3.731224710640178E+10       /* J = 16 */
(PID.TID 0000.0001)     ;
(PID.TID 0000.0001) rAw =  /* rAw(:,1,:,1) ( units: m^2 ) */
(PID.TID 0000.0001)    20 @  4.853087465028468E+10              /* I =  1: 20 */
(PID.TID 0000.0001)     ;
(PID.TID 0000.0001) rAw =  /* rAw(1,:,1,:) ( units: m^2 ) */
(PID.TID 0000.0001)                 4.853087465028468E+10,      /* J =  1 */
(PID.TID 0000.0001)                 4.817208842057614E+10,      /* J =  2 */
(PID.TID 0000.0001)                 4.775461192146850E+10,      /* J =  3 */
(PID.TID 0000.0001)                 4.727895378376868E+10,      /* J =  4 */
(PID.TID 0000.0001)                 4.674569352364785E+10,      /* J =  5 */
(PID.TID 0000.0001)                 4.615548083659052E+10,      /* J =  6 */
(PID.TID 0000.0001)                 4.550903480584064E+10,      /* J =  7 */
(PID.TID 0000.0001)                 4.480714302630917E+10,      /* J =  8 */
(PID.TID 0000.0001)                 4.405066064501157E+10,      /* J =  9 */
(PID.TID 0000.0001)                 4.324050931920184E+10,      /* J = 10 */
(PID.TID 0000.0001)                 4.237767609347683E+10,      /* J = 11 */
(PID.TID 0000.0001)                 4.146321219721255E+10,      /* J = 12 */
(PID.TID 0000.0001)                 4.049823176380374E+10,      /* J = 13 */
(PID.TID 0000.0001)                 3.948391047326549E+10,      /* J = 14 */
(PID.TID 0000.0001)                 3.842148411984549E+10,      /* J = 15 */
(PID.TID 0000.0001)                 3.731224710640178E+10       /* J = 16 */
(PID.TID 0000.0001)     ;
(PID.TID 0000.0001) rAs =  /* rAs(:,1,:,1) ( units: m^2 ) */
(PID.TID 0000.0001)    20 @  4.868811950398895E+10              /* I =  1: 20 */
(PID.TID 0000.0001)     ;
(PID.TID 0000.0001) rAs =  /* rAs(1,:,1,:) ( units: m^2 ) */
(PID.TID 0000.0001)                 4.868811950398895E+10,      /* J =  1 */
(PID.TID 0000.0001)                 4.835884682203275E+10,      /* J =  2 */
(PID.TID 0000.0001)                 4.797065633433311E+10,      /* J =  3 */
(PID.TID 0000.0001)                 4.752402099120342E+10,      /* J =  4 */
(PID.TID 0000.0001)                 4.701948494900997E+10,      /* J =  5 */
(PID.TID 0000.0001)                 4.645766290720264E+10,      /* J =  6 */
(PID.TID 0000.0001)                 4.583923935939737E+10,      /* J =  7 */
(PID.TID 0000.0001)                 4.516496775942608E+10,      /* J =  8 */
(PID.TID 0000.0001)                 4.443566960336987E+10,      /* J =  9 */
(PID.TID 0000.0001)                 4.365223342869237E+10,      /* J = 10 */
(PID.TID 0000.0001)                 4.281561373169270E+10,      /* J = 11 */
(PID.TID 0000.0001)                 4.192682980460108E+10,      /* J = 12 */
(PID.TID 0000.0001)                 4.098696449372525E+10,      /* J = 13 */
(PID.TID 0000.0001)                 3.999716288017197E+10,      /* J = 14 */
(PID.TID 0000.0001)                 3.895863088473959E+10,      /* J = 15 */
(PID.TID 0000.0001)                 3.787263379869147E+10       /* J = 16 */
(PID.TID 0000.0001)     ;
(PID.TID 0000.0001) globalArea = /* Integrated horizontal Area (m^2) */
(PID.TID 0000.0001)                 8.853746056302295E+12
(PID.TID 0000.0001)     ;
(PID.TID 0000.0001) // =======================================================
(PID.TID 0000.0001) // End of Model config. summary
(PID.TID 0000.0001) // =======================================================
(PID.TID 0000.0001) 
(PID.TID 0000.0001) == Packages configuration : Check & print summary ==
(PID.TID 0000.0001) 
(PID.TID 0000.0001) GAD_CHECK: #define ALLOW_GENERIC_ADVDIFF
(PID.TID 0000.0001) KPP_CHECK: #define ALLOW_KPP
(PID.TID 0000.0001) GMREDI_CHECK: #define GMREDI
(PID.TID 0000.0001) GM_AdvForm =     /* if FALSE => use SkewFlux Form */
(PID.TID 0000.0001)                   F
(PID.TID 0000.0001)     ;
(PID.TID 0000.0001) GM_InMomAsStress = /* if TRUE => apply as Eddy Stress */
(PID.TID 0000.0001)                   F
(PID.TID 0000.0001)     ;
(PID.TID 0000.0001) GM_AdvSeparate = /* Calc Bolus & Euler Adv. separately */
(PID.TID 0000.0001)                   F
(PID.TID 0000.0001)     ;
(PID.TID 0000.0001) GM_ExtraDiag =   /* Tensor Extra Diag (line 1&2) non 0 */
(PID.TID 0000.0001)                   F
(PID.TID 0000.0001)     ;
(PID.TID 0000.0001) GM_isopycK =    /* Background Isopyc. Diffusivity [m^2/s] */
(PID.TID 0000.0001)                 8.000000000000000E+02
(PID.TID 0000.0001)     ;
(PID.TID 0000.0001) GM_skewflx*K =  /* Background GM_SkewFlx Diffusivity [m^2/s] */
(PID.TID 0000.0001)                 8.000000000000000E+02
(PID.TID 0000.0001)     ;
(PID.TID 0000.0001) GM_advec*K =    /* Backg. GM-Advec(=Bolus) Diffusivity [m^2/s]*/
(PID.TID 0000.0001)                 0.000000000000000E+00
(PID.TID 0000.0001)     ;
(PID.TID 0000.0001) GM_Kmin_horiz = /* Minimum Horizontal Diffusivity [m^2/s] */
(PID.TID 0000.0001)                 0.000000000000000E+00
(PID.TID 0000.0001)     ;
(PID.TID 0000.0001) GM_Visbeck_alpha = /* Visbeck alpha coeff. [-] */
(PID.TID 0000.0001)                 0.000000000000000E+00
(PID.TID 0000.0001)     ;
(PID.TID 0000.0001) GM_Small_Number =  /* epsilon used in slope calc */
(PID.TID 0000.0001)                 9.999999999999999E-21
(PID.TID 0000.0001)     ;
(PID.TID 0000.0001) GM_slopeSqCutoff = /* Slope^2 cut-off value */
(PID.TID 0000.0001)                 1.000000000000000E+48
(PID.TID 0000.0001)     ;
(PID.TID 0000.0001) GM_taper_scheme =  /* Type of Tapering/Clipping scheme */
(PID.TID 0000.0001)               'gkw91                                   '
(PID.TID 0000.0001)     ;
(PID.TID 0000.0001) GM_maxSlope =  /* Maximum Slope (Tapering/Clipping) */
(PID.TID 0000.0001)                 1.000000000000000E-02
(PID.TID 0000.0001)     ;
(PID.TID 0000.0001) GM_facTrL2dz = /* Minimum Trans.Layer Thick. (factor of dz) */
(PID.TID 0000.0001)                 1.000000000000000E+00
(PID.TID 0000.0001)     ;
(PID.TID 0000.0001) GM_facTrL2ML = /* Max.Trans.Layer Thick. (factor of MxL Depth)*/
(PID.TID 0000.0001)                 5.000000000000000E+00
(PID.TID 0000.0001)     ;
(PID.TID 0000.0001) GM_maxTransLay = /* Maximum Transition Layer Thickness [m] */
(PID.TID 0000.0001)                 5.000000000000000E+02
(PID.TID 0000.0001)     ;
(PID.TID 0000.0001) // =======================================================
(PID.TID 0000.0001) // CONFIG_CHECK : Normal End
(PID.TID 0000.0001) // =======================================================
(PID.TID 0000.0001) 
(PID.TID 0000.0001)  MDS_READ_FIELD: opening global file: kf_climtheta
(PID.TID 0000.0001) // =======================================================
(PID.TID 0000.0001) // Field Initial Temperature at iteration          1
(PID.TID 0000.0001) // CMIN =          1.840084838867188E+01
(PID.TID 0000.0001) // CMAX =          2.607793426513672E+01
(PID.TID 0000.0001) // CINT =          2.843365139431424E-01
(PID.TID 0000.0001) // SYMBOLS (CMIN->CMAX): -abcdefghijklmnopqrstuvwxyz+
(PID.TID 0000.0001) //                  0.0: .
(PID.TID 0000.0001) // RANGE I (Lo:Hi:Step):(   1:  20:   1)
(PID.TID 0000.0001) // RANGE J (Lo:Hi:Step):(  16:   1:  -1)
(PID.TID 0000.0001) // RANGE K (Lo:Hi:Step):(   1:   1:   1)
(PID.TID 0000.0001) // =======================================================
(PID.TID 0000.0001) K =   1
(PID.TID 0000.0001)                I=10      I=20
(PID.TID 0000.0001) |--J--|123456789|123456789|
(PID.TID 0000.0001)     16 ....................
(PID.TID 0000.0001)     15 .jihhgfeedddcba---a.
(PID.TID 0000.0001)     14 .kjiihggffeedcbbabb.
(PID.TID 0000.0001)     13 .lkkjiiiihgfedccbc..
(PID.TID 0000.0001)     12 .mllkkjjjihgfedcc...
(PID.TID 0000.0001)     11 .onnmmllkjihgfeec...
(PID.TID 0000.0001)     10 .rrqqponmmlkihf.....
(PID.TID 0000.0001)      9 .utssrqponmljh......
(PID.TID 0000.0001)      8 .vuttsrqponlig......
(PID.TID 0000.0001)      7 .vuutsrrponkif......
(PID.TID 0000.0001)      6 .wvvuutsrqomjh......
(PID.TID 0000.0001)      5 .yxwwwvutsrpnl......
(PID.TID 0000.0001)      4 .zyyyxxwwvutrq......
(PID.TID 0000.0001)      3 .zzzzyyxxxxwvu......
(PID.TID 0000.0001)      2 .+++++zzz+++zy......
(PID.TID 0000.0001)      1 ....................
(PID.TID 0000.0001) // =======================================================
(PID.TID 0000.0001) // END OF FIELD                                          =
(PID.TID 0000.0001) // =======================================================
(PID.TID 0000.0001) 
(PID.TID 0000.0001)  MDS_READ_FIELD: opening global file: kf_climsalt
(PID.TID 0000.0001) // =======================================================
(PID.TID 0000.0001) // Field Initial Salinity at iteration          1
(PID.TID 0000.0001) // CMIN =          3.501070022583008E+01
(PID.TID 0000.0001) // CMAX =          3.739887619018555E+01
(PID.TID 0000.0001) // CINT =          8.845096164279515E-02
(PID.TID 0000.0001) // SYMBOLS (CMIN->CMAX): -abcdefghijklmnopqrstuvwxyz+
(PID.TID 0000.0001) //                  0.0: .
(PID.TID 0000.0001) // RANGE I (Lo:Hi:Step):(   1:  20:   1)
(PID.TID 0000.0001) // RANGE J (Lo:Hi:Step):(  16:   1:  -1)
(PID.TID 0000.0001) // RANGE K (Lo:Hi:Step):(   1:   1:   1)
(PID.TID 0000.0001) // =======================================================
(PID.TID 0000.0001) K =   1
(PID.TID 0000.0001)                I=10      I=20
(PID.TID 0000.0001) |--J--|123456789|123456789|
(PID.TID 0000.0001)     16 ....................
(PID.TID 0000.0001)     15 .oonnnnmmnnnnnnmllk.
(PID.TID 0000.0001)     14 .ppppoooopppppppooo.
(PID.TID 0000.0001)     13 .qqqqqrrrrrrqqqqqq..
(PID.TID 0000.0001)     12 .tttttttttttssrqp...
(PID.TID 0000.0001)     11 .wwwwwwvvvvuusrpn...
(PID.TID 0000.0001)     10 .zzyyyyyxxwvusr.....
(PID.TID 0000.0001)      9 .++zzzzyxxwutr......
(PID.TID 0000.0001)      8 .+zzyyyxwvusrp......
(PID.TID 0000.0001)      7 .xxxxwwutsrpnm......
(PID.TID 0000.0001)      6 .uuuuutsqponlj......
(PID.TID 0000.0001)      5 .rrrrqqponmkji......
(PID.TID 0000.0001)      4 .poooonmmlkihg......
(PID.TID 0000.0001)      3 .mmlllllkjihec......
(PID.TID 0000.0001)      2 .jjjkkkjjihfd-......
(PID.TID 0000.0001)      1 ....................
(PID.TID 0000.0001) // =======================================================
(PID.TID 0000.0001) // END OF FIELD                                          =
(PID.TID 0000.0001) // =======================================================
(PID.TID 0000.0001) 
(PID.TID 0000.0001) Start initial hydrostatic pressure computation
(PID.TID 0000.0001) Pressure is predetermined for buoyancyRelation OCEANIC
(PID.TID 0000.0001) 
(PID.TID 0000.0001)  MDS_READ_FIELD: opening global file: kf_tx
(PID.TID 0000.0001)  MDS_READ_FIELD: opening global file: kf_ty
(PID.TID 0000.0001)  MDS_READ_FIELD: opening global file: kf_qnet
(PID.TID 0000.0001)  MDS_READ_FIELD: opening global file: kf_empmr
(PID.TID 0000.0001)  MDS_READ_FIELD: opening global file: kf_sst
(PID.TID 0000.0001)  MDS_READ_FIELD: opening global file: kf_sss
(PID.TID 0000.0001)  MDS_READ_FIELD: opening global file: kf_sw
(PID.TID 0000.0001)  write diagnostics summary to file ioUnit:      6
Iter.Nb:         0 ; Time(s):  2.1600000000000E+04
------------------------------------------------------------------------
2D/3D diagnostics: Number of lists:     1
------------------------------------------------------------------------
listId=    1 ; file name: TRAC01
 nFlds, nActive,       freq     &     phase        , nLev               
    1  |    1  |     10800.000000         0.000000 |  23
 levels:   1   2   3   4   5   6   7   8   9  10  11  12  13  14  15  16  17  18  19  20  21  22  23
 diag# | name   |   ipt  |  iMate | kLev|   count |   mate.C|           
   211 |TRAC01  |      1 |      0 |  23 |       0 |
------------------------------------------------------------------------
Global & Regional Statistics diagnostics: Number of lists:     0
------------------------------------------------------------------------
(PID.TID 0000.0001)  MDS_READ_FIELD: opening global file: kf_climsalt
(PID.TID 0000.0001) // =======================================================
(PID.TID 0000.0001) // Model current state
(PID.TID 0000.0001) // =======================================================
(PID.TID 0000.0001) 
(PID.TID 0000.0001) // =======================================================
(PID.TID 0000.0001) // Begin MONITOR dynamic field statistics
(PID.TID 0000.0001) // =======================================================
(PID.TID 0000.0001) %MON time_tsnumber                =                     0
(PID.TID 0000.0001) %MON time_secondsf                =   2.1600000000000E+04
(PID.TID 0000.0001) %MON dynstat_eta_max              =   0.0000000000000E+00
(PID.TID 0000.0001) %MON dynstat_eta_min              =   0.0000000000000E+00
(PID.TID 0000.0001) %MON dynstat_eta_mean             =   0.0000000000000E+00
(PID.TID 0000.0001) %MON dynstat_eta_sd               =   0.0000000000000E+00
(PID.TID 0000.0001) %MON dynstat_eta_del2             =   0.0000000000000E+00
(PID.TID 0000.0001) %MON dynstat_uvel_max             =   0.0000000000000E+00
(PID.TID 0000.0001) %MON dynstat_uvel_min             =   0.0000000000000E+00
(PID.TID 0000.0001) %MON dynstat_uvel_mean            =   0.0000000000000E+00
(PID.TID 0000.0001) %MON dynstat_uvel_sd              =   0.0000000000000E+00
(PID.TID 0000.0001) %MON dynstat_uvel_del2            =   0.0000000000000E+00
(PID.TID 0000.0001) %MON dynstat_vvel_max             =   0.0000000000000E+00
(PID.TID 0000.0001) %MON dynstat_vvel_min             =   0.0000000000000E+00
(PID.TID 0000.0001) %MON dynstat_vvel_mean            =   0.0000000000000E+00
(PID.TID 0000.0001) %MON dynstat_vvel_sd              =   0.0000000000000E+00
(PID.TID 0000.0001) %MON dynstat_vvel_del2            =   0.0000000000000E+00
(PID.TID 0000.0001) %MON dynstat_wvel_max             =  -0.0000000000000E+00
(PID.TID 0000.0001) %MON dynstat_wvel_min             =  -0.0000000000000E+00
(PID.TID 0000.0001) %MON dynstat_wvel_mean            =   0.0000000000000E+00
(PID.TID 0000.0001) %MON dynstat_wvel_sd              =   0.0000000000000E+00
(PID.TID 0000.0001) %MON dynstat_wvel_del2            =   0.0000000000000E+00
(PID.TID 0000.0001) %MON dynstat_theta_max            =   2.6077934265137E+01
(PID.TID 0000.0001) %MON dynstat_theta_min            =   1.8064365386963E+00
(PID.TID 0000.0001) %MON dynstat_theta_mean           =   5.4784105600004E+00
(PID.TID 0000.0001) %MON dynstat_theta_sd             =   4.5923951934310E+00
(PID.TID 0000.0001) %MON dynstat_theta_del2           =   5.0898848572070E-02
(PID.TID 0000.0001) %MON dynstat_salt_max             =   3.7401638031006E+01
(PID.TID 0000.0001) %MON dynstat_salt_min             =   3.4726768493652E+01
(PID.TID 0000.0001) %MON dynstat_salt_mean            =   3.5157555715946E+01
(PID.TID 0000.0001) %MON dynstat_salt_sd              =   4.1377404390946E-01
(PID.TID 0000.0001) %MON dynstat_salt_del2            =   1.2632116608019E-02
(PID.TID 0000.0001) %MON extforcing_qnet_max          =   2.5772109985352E+01
(PID.TID 0000.0001) %MON extforcing_qnet_min          =  -1.7793640136719E+02
(PID.TID 0000.0001) %MON extforcing_qnet_mean         =  -8.6225629002468E+01
(PID.TID 0000.0001) %MON extforcing_qnet_sd           =   5.2166051016192E+01
(PID.TID 0000.0001) %MON extforcing_qnet_del2         =   8.3190743582589E+00
(PID.TID 0000.0001) %MON extforcing_qsw_max           =  -1.5340605163574E+02
(PID.TID 0000.0001) %MON extforcing_qsw_min           =  -3.1156558227539E+02
(PID.TID 0000.0001) %MON extforcing_qsw_mean          =  -2.4622679656805E+02
(PID.TID 0000.0001) %MON extforcing_qsw_sd            =   4.1213103000011E+01
(PID.TID 0000.0001) %MON extforcing_qsw_del2          =   6.0288217854617E+00
(PID.TID 0000.0001) %MON extforcing_empmr_max         =   6.3069694468254E-05
(PID.TID 0000.0001) %MON extforcing_empmr_min         =   1.2103353894055E-05
(PID.TID 0000.0001) %MON extforcing_empmr_mean        =   3.6742450533127E-05
(PID.TID 0000.0001) %MON extforcing_empmr_sd          =   1.2117638039994E-05
(PID.TID 0000.0001) %MON extforcing_empmr_del2        =   2.2638034320330E-06
(PID.TID 0000.0001) %MON advcfl_uvel_max              =   0.0000000000000E+00
(PID.TID 0000.0001) %MON advcfl_vvel_max              =   0.0000000000000E+00
(PID.TID 0000.0001) %MON advcfl_wvel_max              =   0.0000000000000E+00
(PID.TID 0000.0001) %MON advcfl_W_hf_max              =   0.0000000000000E+00
(PID.TID 0000.0001) %MON pe_b_mean                    =   0.0000000000000E+00
(PID.TID 0000.0001) %MON ke_max                       =   0.0000000000000E+00
(PID.TID 0000.0001) %MON ke_mean                      =   0.0000000000000E+00
(PID.TID 0000.0001) %MON ke_vol                       =   3.6027486600263E+16
(PID.TID 0000.0001) %MON vort_r_min                   =   0.0000000000000E+00
(PID.TID 0000.0001) %MON vort_r_max                   =   0.0000000000000E+00
(PID.TID 0000.0001) %MON vort_a_mean                  =   6.1944475191297E-05
(PID.TID 0000.0001) %MON vort_a_sd                    =   1.9197697516420E-05
(PID.TID 0000.0001) %MON vort_p_mean                  =   7.7881882182936E-05
(PID.TID 0000.0001) %MON vort_p_sd                    =   5.6365002634549E-05
(PID.TID 0000.0001) %MON surfExpan_theta_mean         =   0.0000000000000E+00
(PID.TID 0000.0001) %MON surfExpan_salt_mean          =   0.0000000000000E+00
(PID.TID 0000.0001) // =======================================================
(PID.TID 0000.0001) // End MONITOR dynamic field statistics
(PID.TID 0000.0001) // =======================================================
(PID.TID 0000.0001) // =======================================================
(PID.TID 0000.0001) // Begin MONITOR ptracer field statistics
(PID.TID 0000.0001) // =======================================================
(PID.TID 0000.0001) %MON trcstat_ptracer01_max        =   3.7401638031006E+01
(PID.TID 0000.0001) %MON trcstat_ptracer01_min        =   3.4726768493652E+01
(PID.TID 0000.0001) %MON trcstat_ptracer01_mean       =   3.5157555715946E+01
(PID.TID 0000.0001) %MON trcstat_ptracer01_sd         =   4.1377404390946E-01
(PID.TID 0000.0001) %MON trcstat_ptracer01_del2       =   1.2632116608019E-02
(PID.TID 0000.0001) // =======================================================
(PID.TID 0000.0001) // End MONITOR ptracers field statistics
(PID.TID 0000.0001) // =======================================================
S/R EXTERNAL_FIELDS_LOAD: Reading new data:    1    2         0  2.160000000000E+04
(PID.TID 0000.0001)  MDS_READ_FIELD: opening global file: kf_tx
(PID.TID 0000.0001)  MDS_READ_FIELD: opening global file: kf_tx
(PID.TID 0000.0001)  MDS_READ_FIELD: opening global file: kf_ty
(PID.TID 0000.0001)  MDS_READ_FIELD: opening global file: kf_ty
(PID.TID 0000.0001)  MDS_READ_FIELD: opening global file: kf_qnet
(PID.TID 0000.0001)  MDS_READ_FIELD: opening global file: kf_qnet
(PID.TID 0000.0001)  MDS_READ_FIELD: opening global file: kf_empmr
(PID.TID 0000.0001)  MDS_READ_FIELD: opening global file: kf_empmr
(PID.TID 0000.0001)  MDS_READ_FIELD: opening global file: kf_sst
(PID.TID 0000.0001)  MDS_READ_FIELD: opening global file: kf_sst
(PID.TID 0000.0001)  MDS_READ_FIELD: opening global file: kf_sss
(PID.TID 0000.0001)  MDS_READ_FIELD: opening global file: kf_sss
(PID.TID 0000.0001)  MDS_READ_FIELD: opening global file: kf_sw
(PID.TID 0000.0001)  MDS_READ_FIELD: opening global file: kf_sw
time,SST,SSS,fu,fv,Q,E-P,i0,i1,a,b =   2.1600E+04  0.0000E+00  0.0000E+00 -0.0000E+00 -0.0000E+00  0.0000E+00  0.0000E+00     1     2  0.0000E+00  1.0000E+00
time,fu0,fu1,fu =   2.1600E+04 -0.0000E+00 -0.0000E+00 -0.0000E+00  0.000000000000000E+00  1.000000000000000E+00
 cg2d: Sum(rhs),rhsMax =  -1.77635683940025E-15  4.50737656360044E-01
(PID.TID 0000.0001)                    cg2d_init_res =    3.97960747080088E+00
(PID.TID 0000.0001)                       cg2d_iters =    50
(PID.TID 0000.0001)                         cg2d_res =    7.13208989204053E-14
(PID.TID 0000.0001) // =======================================================
(PID.TID 0000.0001) // Begin MONITOR dynamic field statistics
(PID.TID 0000.0001) // =======================================================
(PID.TID 0000.0001) %MON time_tsnumber                =                     1
(PID.TID 0000.0001) %MON time_secondsf                =   2.5200000000000E+04
(PID.TID 0000.0001) %MON dynstat_eta_max              =   7.9831848646388E-02
(PID.TID 0000.0001) %MON dynstat_eta_min              =  -1.0327152670087E-01
(PID.TID 0000.0001) %MON dynstat_eta_mean             =   1.3787419666629E-18
(PID.TID 0000.0001) %MON dynstat_eta_sd               =   3.4047408239500E-02
(PID.TID 0000.0001) %MON dynstat_eta_del2             =   4.0984734777375E-03
(PID.TID 0000.0001) %MON dynstat_uvel_max             =   5.3767310065446E-02
(PID.TID 0000.0001) %MON dynstat_uvel_min             =  -4.2462040507250E-02
(PID.TID 0000.0001) %MON dynstat_uvel_mean            =  -1.7162005942187E-03
(PID.TID 0000.0001) %MON dynstat_uvel_sd              =   1.4714462723193E-03
(PID.TID 0000.0001) %MON dynstat_uvel_del2            =   4.3032581260394E-04
(PID.TID 0000.0001) %MON dynstat_vvel_max             =   1.0121841090179E-02
(PID.TID 0000.0001) %MON dynstat_vvel_min             =  -2.9296628090307E-02
(PID.TID 0000.0001) %MON dynstat_vvel_mean            =  -1.2965381764512E-04
(PID.TID 0000.0001) %MON dynstat_vvel_sd              =   1.6348907706678E-03
(PID.TID 0000.0001) %MON dynstat_vvel_del2            =   5.9219754533458E-04
(PID.TID 0000.0001) %MON dynstat_wvel_max             =   4.7438450209645E-05
(PID.TID 0000.0001) %MON dynstat_wvel_min             =  -9.2458472497102E-05
(PID.TID 0000.0001) %MON dynstat_wvel_mean            =   9.0038297538675E-22
(PID.TID 0000.0001) %MON dynstat_wvel_sd              =   1.2602961720835E-05
(PID.TID 0000.0001) %MON dynstat_wvel_del2            =   3.1493539806517E-06
(PID.TID 0000.0001) %MON dynstat_theta_max            =   2.6076696687603E+01
(PID.TID 0000.0001) %MON dynstat_theta_min            =   1.8064385538720E+00
(PID.TID 0000.0001) %MON dynstat_theta_mean           =   5.4784296546519E+00
(PID.TID 0000.0001) %MON dynstat_theta_sd             =   4.5924602156105E+00
(PID.TID 0000.0001) %MON dynstat_theta_del2           =   5.0895094847973E-02
(PID.TID 0000.0001) %MON dynstat_salt_max             =   3.7400555976541E+01
(PID.TID 0000.0001) %MON dynstat_salt_min             =   3.4726771285308E+01
(PID.TID 0000.0001) %MON dynstat_salt_mean            =   3.5157556923008E+01
(PID.TID 0000.0001) %MON dynstat_salt_sd              =   4.1377705241412E-01
(PID.TID 0000.0001) %MON dynstat_salt_del2            =   1.2629393696983E-02
(PID.TID 0000.0001) %MON extforcing_qnet_max          =   2.5772109985352E+01
(PID.TID 0000.0001) %MON extforcing_qnet_min          =  -1.7793640136719E+02
(PID.TID 0000.0001) %MON extforcing_qnet_mean         =  -8.6225629002468E+01
(PID.TID 0000.0001) %MON extforcing_qnet_sd           =   5.2166051016192E+01
(PID.TID 0000.0001) %MON extforcing_qnet_del2         =   8.3190743582589E+00
(PID.TID 0000.0001) %MON extforcing_qsw_max           =  -1.5340605163574E+02
(PID.TID 0000.0001) %MON extforcing_qsw_min           =  -3.1156558227539E+02
(PID.TID 0000.0001) %MON extforcing_qsw_mean          =  -2.4622679656805E+02
(PID.TID 0000.0001) %MON extforcing_qsw_sd            =   4.1213103000011E+01
(PID.TID 0000.0001) %MON extforcing_qsw_del2          =   6.0288217854617E+00
(PID.TID 0000.0001) %MON extforcing_empmr_max         =   6.3069694468254E-05
(PID.TID 0000.0001) %MON extforcing_empmr_min         =   1.2103353894055E-05
(PID.TID 0000.0001) %MON extforcing_empmr_mean        =   3.6742450533127E-05
(PID.TID 0000.0001) %MON extforcing_empmr_sd          =   1.2117638039994E-05
(PID.TID 0000.0001) %MON extforcing_empmr_del2        =   2.2638034320330E-06
(PID.TID 0000.0001) %MON advcfl_uvel_max              =   1.1201377154162E-03
(PID.TID 0000.0001) %MON advcfl_vvel_max              =   4.7432208137680E-04
(PID.TID 0000.0001) %MON advcfl_wvel_max              =   2.0654305340174E-02
(PID.TID 0000.0001) %MON advcfl_W_hf_max              =   1.0497629560991E-02
(PID.TID 0000.0001) %MON pe_b_mean                    =   1.3973339919140E-06
(PID.TID 0000.0001) %MON ke_max                       =   9.5708186163306E-04
(PID.TID 0000.0001) %MON ke_mean                      =   3.4825599599786E-06
(PID.TID 0000.0001) %MON ke_vol                       =   3.6027486600263E+16
(PID.TID 0000.0001) %MON vort_r_min                   =  -2.2171341637499E-07
(PID.TID 0000.0001) %MON vort_r_max                   =   2.4532521669418E-07
(PID.TID 0000.0001) %MON vort_a_mean                  =   6.1944475191297E-05
(PID.TID 0000.0001) %MON vort_a_sd                    =   1.9196261613388E-05
(PID.TID 0000.0001) %MON vort_p_mean                  =   7.7881882182936E-05
(PID.TID 0000.0001) %MON vort_p_sd                    =   5.6362018534487E-05
(PID.TID 0000.0001) %MON surfExpan_theta_mean         =   7.5421651511881E-06
(PID.TID 0000.0001) %MON surfExpan_salt_mean          =   2.1190845772360E-06
(PID.TID 0000.0001) // =======================================================
(PID.TID 0000.0001) // End MONITOR dynamic field statistics
(PID.TID 0000.0001) // =======================================================
(PID.TID 0000.0001) // =======================================================
(PID.TID 0000.0001) // Begin MONITOR ptracer field statistics
(PID.TID 0000.0001) // =======================================================
(PID.TID 0000.0001) %MON trcstat_ptracer01_max        =   3.7401638031006E+01
(PID.TID 0000.0001) %MON trcstat_ptracer01_min        =   3.4726768493652E+01
(PID.TID 0000.0001) %MON trcstat_ptracer01_mean       =   3.5157555715946E+01
(PID.TID 0000.0001) %MON trcstat_ptracer01_sd         =   4.1377404390946E-01
(PID.TID 0000.0001) %MON trcstat_ptracer01_del2       =   1.2632116608019E-02
(PID.TID 0000.0001) // =======================================================
(PID.TID 0000.0001) // End MONITOR ptracers field statistics
(PID.TID 0000.0001) // =======================================================
time,SST,SSS,fu,fv,Q,E-P,i0,i1,a,b =   2.5200E+04  0.0000E+00  0.0000E+00 -0.0000E+00 -0.0000E+00  0.0000E+00  0.0000E+00     1     2  8.3333E-02  9.1667E-01
time,fu0,fu1,fu =   2.5200E+04 -0.0000E+00 -0.0000E+00 -0.0000E+00  8.333333333333333E-02  9.166666666666666E-01
 cg2d: Sum(rhs),rhsMax =   0.00000000000000E+00  5.55592416545957E-01
(PID.TID 0000.0001)                    cg2d_init_res =    9.18828711086711E-01
(PID.TID 0000.0001)                       cg2d_iters =    47
(PID.TID 0000.0001)                         cg2d_res =    7.17409096633954E-14
(PID.TID 0000.0001) // =======================================================
(PID.TID 0000.0001) // Begin MONITOR dynamic field statistics
(PID.TID 0000.0001) // =======================================================
(PID.TID 0000.0001) %MON time_tsnumber                =                     2
(PID.TID 0000.0001) %MON time_secondsf                =   2.8800000000000E+04
(PID.TID 0000.0001) %MON dynstat_eta_max              =   1.4747849109255E-01
(PID.TID 0000.0001) %MON dynstat_eta_min              =  -1.8208446979378E-01
(PID.TID 0000.0001) %MON dynstat_eta_mean             =   0.0000000000000E+00
(PID.TID 0000.0001) %MON dynstat_eta_sd               =   6.7128336904108E-02
(PID.TID 0000.0001) %MON dynstat_eta_del2             =   4.6954399853681E-03
(PID.TID 0000.0001) %MON dynstat_uvel_max             =   1.0408400750640E-01
(PID.TID 0000.0001) %MON dynstat_uvel_min             =  -7.3220279291611E-02
(PID.TID 0000.0001) %MON dynstat_uvel_mean            =  -2.1354032267712E-03
(PID.TID 0000.0001) %MON dynstat_uvel_sd              =   2.6930697769395E-03
(PID.TID 0000.0001) %MON dynstat_uvel_del2            =   8.2163402355488E-04
(PID.TID 0000.0001) %MON dynstat_vvel_max             =   2.1343944197691E-02
(PID.TID 0000.0001) %MON dynstat_vvel_min             =  -5.3409782094907E-02
(PID.TID 0000.0001) %MON dynstat_vvel_mean            =  -2.0985315667927E-04
(PID.TID 0000.0001) %MON dynstat_vvel_sd              =   2.9914577346259E-03
(PID.TID 0000.0001) %MON dynstat_vvel_del2            =   1.1677530931539E-03
(PID.TID 0000.0001) %MON dynstat_wvel_max             =   7.5986058261961E-05
(PID.TID 0000.0001) %MON dynstat_wvel_min             =  -1.4301327346035E-04
(PID.TID 0000.0001) %MON dynstat_wvel_mean            =  -3.6015319015470E-21
(PID.TID 0000.0001) %MON dynstat_wvel_sd              =   1.9442978883020E-05
(PID.TID 0000.0001) %MON dynstat_wvel_del2            =   4.5244780936089E-06
(PID.TID 0000.0001) %MON dynstat_theta_max            =   2.6075234378655E+01
(PID.TID 0000.0001) %MON dynstat_theta_min            =   1.8064381111890E+00
(PID.TID 0000.0001) %MON dynstat_theta_mean           =   5.4784377004774E+00
(PID.TID 0000.0001) %MON dynstat_theta_sd             =   4.5924870026163E+00
(PID.TID 0000.0001) %MON dynstat_theta_del2           =   5.0847521007076E-02
(PID.TID 0000.0001) %MON dynstat_salt_max             =   3.7400587536368E+01
(PID.TID 0000.0001) %MON dynstat_salt_min             =   3.4726777938972E+01
(PID.TID 0000.0001) %MON dynstat_salt_mean            =   3.5157555146513E+01
(PID.TID 0000.0001) %MON dynstat_salt_sd              =   4.1376961552875E-01
(PID.TID 0000.0001) %MON dynstat_salt_del2            =   1.2629341388552E-02
(PID.TID 0000.0001) %MON extforcing_qnet_max          =   2.6062016805013E+01
(PID.TID 0000.0001) %MON extforcing_qnet_min          =  -1.7659355545044E+02
(PID.TID 0000.0001) %MON extforcing_qnet_mean         =  -8.5257431754752E+01
(PID.TID 0000.0001) %MON extforcing_qnet_sd           =   5.2007111613118E+01
(PID.TID 0000.0001) %MON extforcing_qnet_del2         =   8.2510235180408E+00
(PID.TID 0000.0001) %MON extforcing_qsw_max           =  -1.5255920283000E+02
(PID.TID 0000.0001) %MON extforcing_qsw_min           =  -3.1216041564941E+02
(PID.TID 0000.0001) %MON extforcing_qsw_mean          =  -2.4650639625986E+02
(PID.TID 0000.0001) %MON extforcing_qsw_sd            =   4.1246809110616E+01
(PID.TID 0000.0001) %MON extforcing_qsw_del2          =   5.9979608438677E+00
(PID.TID 0000.0001) %MON extforcing_empmr_max         =   6.3481127135508E-05
(PID.TID 0000.0001) %MON extforcing_empmr_min         =   1.2253066312236E-05
(PID.TID 0000.0001) %MON extforcing_empmr_mean        =   3.7131810081233E-05
(PID.TID 0000.0001) %MON extforcing_empmr_sd          =   1.2044395715904E-05
(PID.TID 0000.0001) %MON extforcing_empmr_del2        =   2.2540989364255E-06
(PID.TID 0000.0001) %MON advcfl_uvel_max              =   2.1683886033665E-03
(PID.TID 0000.0001) %MON advcfl_vvel_max              =   8.6472200592666E-04
(PID.TID 0000.0001) %MON advcfl_wvel_max              =   1.6837713890033E-02
(PID.TID 0000.0001) %MON advcfl_W_hf_max              =   1.0464172461447E-02
(PID.TID 0000.0001) %MON pe_b_mean                    =   5.4318014065110E-06
(PID.TID 0000.0001) %MON ke_max                       =   3.1078896077653E-03
(PID.TID 0000.0001) %MON ke_mean                      =   9.2689951412591E-06
(PID.TID 0000.0001) %MON ke_vol                       =   3.6027486600263E+16
(PID.TID 0000.0001) %MON vort_r_min                   =  -4.1309057555802E-07
(PID.TID 0000.0001) %MON vort_r_max                   =   4.7490625186243E-07
(PID.TID 0000.0001) %MON vort_a_mean                  =   6.1944475191297E-05
(PID.TID 0000.0001) %MON vort_a_sd                    =   1.9195918675921E-05
(PID.TID 0000.0001) %MON vort_p_mean                  =   7.7881882182936E-05
(PID.TID 0000.0001) %MON vort_p_sd                    =   5.6361055075367E-05
(PID.TID 0000.0001) %MON surfExpan_theta_mean         =   9.8650730904553E-06
(PID.TID 0000.0001) %MON surfExpan_salt_mean          =   2.1038468243146E-06
(PID.TID 0000.0001) // =======================================================
(PID.TID 0000.0001) // End MONITOR dynamic field statistics
(PID.TID 0000.0001) // =======================================================
(PID.TID 0000.0001) // =======================================================
(PID.TID 0000.0001) // Begin MONITOR ptracer field statistics
(PID.TID 0000.0001) // =======================================================
(PID.TID 0000.0001) %MON trcstat_ptracer01_max        =   3.7401638031006E+01
(PID.TID 0000.0001) %MON trcstat_ptracer01_min        =   3.4726768493652E+01
(PID.TID 0000.0001) %MON trcstat_ptracer01_mean       =   3.5157555715946E+01
(PID.TID 0000.0001) %MON trcstat_ptracer01_sd         =   4.1377404390946E-01
(PID.TID 0000.0001) %MON trcstat_ptracer01_del2       =   1.2632116608019E-02
(PID.TID 0000.0001) // =======================================================
(PID.TID 0000.0001) // End MONITOR ptracers field statistics
(PID.TID 0000.0001) // =======================================================
time,SST,SSS,fu,fv,Q,E-P,i0,i1,a,b =   2.8800E+04  0.0000E+00  0.0000E+00 -0.0000E+00 -0.0000E+00  0.0000E+00  0.0000E+00     1     2  1.6667E-01  8.3333E-01
time,fu0,fu1,fu =   2.8800E+04 -0.0000E+00 -0.0000E+00 -0.0000E+00  1.666666666666667E-01  8.333333333333334E-01
 cg2d: Sum(rhs),rhsMax =   1.77635683940025E-15  5.83506518452129E-01
(PID.TID 0000.0001)                    cg2d_init_res =    5.49820609980321E-01
(PID.TID 0000.0001)                       cg2d_iters =    46
(PID.TID 0000.0001)                         cg2d_res =    7.62787965147658E-14
(PID.TID 0000.0001) // =======================================================
(PID.TID 0000.0001) // Begin MONITOR dynamic field statistics
(PID.TID 0000.0001) // =======================================================
(PID.TID 0000.0001) %MON time_tsnumber                =                     3
(PID.TID 0000.0001) %MON time_secondsf                =   3.2400000000000E+04
(PID.TID 0000.0001) %MON dynstat_eta_max              =   1.8595454069157E-01
(PID.TID 0000.0001) %MON dynstat_eta_min              =  -2.3829804251575E-01
(PID.TID 0000.0001) %MON dynstat_eta_mean             =   0.0000000000000E+00
(PID.TID 0000.0001) %MON dynstat_eta_sd               =   9.1327588649390E-02
(PID.TID 0000.0001) %MON dynstat_eta_del2             =   4.4582604283642E-03
(PID.TID 0000.0001) %MON dynstat_uvel_max             =   1.4696736234968E-01
(PID.TID 0000.0001) %MON dynstat_uvel_min             =  -9.7007369707423E-02
(PID.TID 0000.0001) %MON dynstat_uvel_mean            =  -1.6505420044502E-03
(PID.TID 0000.0001) %MON dynstat_uvel_sd              =   3.7521076634606E-03
(PID.TID 0000.0001) %MON dynstat_uvel_del2            =   1.2098291189673E-03
(PID.TID 0000.0001) %MON dynstat_vvel_max             =   3.1367230253426E-02
(PID.TID 0000.0001) %MON dynstat_vvel_min             =  -7.2707460689411E-02
(PID.TID 0000.0001) %MON dynstat_vvel_mean            =  -4.2591964569822E-04
(PID.TID 0000.0001) %MON dynstat_vvel_sd              =   4.2118473120811E-03
(PID.TID 0000.0001) %MON dynstat_vvel_del2            =   1.6592434644370E-03
(PID.TID 0000.0001) %MON dynstat_wvel_max             =   9.8741505912557E-05
(PID.TID 0000.0001) %MON dynstat_wvel_min             =  -1.7307443014729E-04
(PID.TID 0000.0001) %MON dynstat_wvel_mean            =  -3.1513404138536E-21
(PID.TID 0000.0001) %MON dynstat_wvel_sd              =   2.5200937552278E-05
(PID.TID 0000.0001) %MON dynstat_wvel_del2            =   6.0645378251283E-06
(PID.TID 0000.0001) %MON dynstat_theta_max            =   2.6073673699678E+01
(PID.TID 0000.0001) %MON dynstat_theta_min            =   1.8064381990907E+00
(PID.TID 0000.0001) %MON dynstat_theta_mean           =   5.4784462504798E+00
(PID.TID 0000.0001) %MON dynstat_theta_sd             =   4.5925148502754E+00
(PID.TID 0000.0001) %MON dynstat_theta_del2           =   5.0824257677749E-02
(PID.TID 0000.0001) %MON dynstat_salt_max             =   3.7400772972583E+01
(PID.TID 0000.0001) %MON dynstat_salt_min             =   3.4726783245916E+01
(PID.TID 0000.0001) %MON dynstat_salt_mean            =   3.5157554527225E+01
(PID.TID 0000.0001) %MON dynstat_salt_sd              =   4.1376638531557E-01
(PID.TID 0000.0001) %MON dynstat_salt_del2            =   1.2629560391948E-02
(PID.TID 0000.0001) %MON extforcing_qnet_max          =   2.6353609720866E+01
(PID.TID 0000.0001) %MON extforcing_qnet_min          =  -1.7525070953369E+02
(PID.TID 0000.0001) %MON extforcing_qnet_mean         =  -8.4289234507036E+01
(PID.TID 0000.0001) %MON extforcing_qnet_sd           =   5.1878062558190E+01
(PID.TID 0000.0001) %MON extforcing_qnet_del2         =   8.1954923889711E+00
(PID.TID 0000.0001) %MON extforcing_qsw_max           =  -1.5171235402425E+02
(PID.TID 0000.0001) %MON extforcing_qsw_min           =  -3.1275524902344E+02
(PID.TID 0000.0001) %MON extforcing_qsw_mean          =  -2.4678599595167E+02
(PID.TID 0000.0001) %MON extforcing_qsw_sd            =   4.1303728041958E+01
(PID.TID 0000.0001) %MON extforcing_qsw_del2          =   5.9685850973395E+00
(PID.TID 0000.0001) %MON extforcing_empmr_max         =   6.3953881584903E-05
(PID.TID 0000.0001) %MON extforcing_empmr_min         =   1.2402778730417E-05
(PID.TID 0000.0001) %MON extforcing_empmr_mean        =   3.7521169629339E-05
(PID.TID 0000.0001) %MON extforcing_empmr_sd          =   1.1981030382910E-05
(PID.TID 0000.0001) %MON extforcing_empmr_del2        =   2.2503087950644E-06
(PID.TID 0000.0001) %MON advcfl_uvel_max              =   3.0617802025568E-03
(PID.TID 0000.0001) %MON advcfl_vvel_max              =   1.1771577937064E-03
(PID.TID 0000.0001) %MON advcfl_wvel_max              =   1.4131888877077E-02
(PID.TID 0000.0001) %MON advcfl_W_hf_max              =   9.9465330169895E-03
(PID.TID 0000.0001) %MON pe_b_mean                    =   1.0053935384245E-05
(PID.TID 0000.0001) %MON ke_max                       =   6.2960076086844E-03
(PID.TID 0000.0001) %MON ke_mean                      =   1.5437588916136E-05
(PID.TID 0000.0001) %MON ke_vol                       =   3.6027486600263E+16
(PID.TID 0000.0001) %MON vort_r_min                   =  -5.5159893550051E-07
(PID.TID 0000.0001) %MON vort_r_max                   =   6.7057102115616E-07
(PID.TID 0000.0001) %MON vort_a_mean                  =   6.1944475191297E-05
(PID.TID 0000.0001) %MON vort_a_sd                    =   1.9196332739430E-05
(PID.TID 0000.0001) %MON vort_p_mean                  =   7.7881882182936E-05
(PID.TID 0000.0001) %MON vort_p_sd                    =   5.6361745956495E-05
(PID.TID 0000.0001) %MON surfExpan_theta_mean         =   9.4573052746171E-06
(PID.TID 0000.0001) %MON surfExpan_salt_mean          =   1.1891102317141E-06
(PID.TID 0000.0001) // =======================================================
(PID.TID 0000.0001) // End MONITOR dynamic field statistics
(PID.TID 0000.0001) // =======================================================
(PID.TID 0000.0001) // =======================================================
(PID.TID 0000.0001) // Begin MONITOR ptracer field statistics
(PID.TID 0000.0001) // =======================================================
(PID.TID 0000.0001) %MON trcstat_ptracer01_max        =   3.7400370950535E+01
(PID.TID 0000.0001) %MON trcstat_ptracer01_min        =   3.4726781760162E+01
(PID.TID 0000.0001) %MON trcstat_ptracer01_mean       =   3.5157551977408E+01
(PID.TID 0000.0001) %MON trcstat_ptracer01_sd         =   4.1375914968449E-01
(PID.TID 0000.0001) %MON trcstat_ptracer01_del2       =   1.2629245224703E-02
(PID.TID 0000.0001) // =======================================================
(PID.TID 0000.0001) // End MONITOR ptracers field statistics
(PID.TID 0000.0001) // =======================================================
 Computing Diagnostic #    211  TRAC01       Counter:       1   Parms: SM P    MR      
time,SST,SSS,fu,fv,Q,E-P,i0,i1,a,b =   3.2400E+04  0.0000E+00  0.0000E+00 -0.0000E+00 -0.0000E+00  0.0000E+00  0.0000E+00     1     2  2.5000E-01  7.5000E-01
time,fu0,fu1,fu =   3.2400E+04 -0.0000E+00 -0.0000E+00 -0.0000E+00  2.500000000000000E-01  7.500000000000000E-01
 cg2d: Sum(rhs),rhsMax =  -1.77635683940025E-15  6.07127673792084E-01
(PID.TID 0000.0001)                    cg2d_init_res =    2.97146262742173E-01
(PID.TID 0000.0001)                       cg2d_iters =    47
(PID.TID 0000.0001)                         cg2d_res =    5.03627150732052E-14
(PID.TID 0000.0001) // =======================================================
(PID.TID 0000.0001) // Begin MONITOR dynamic field statistics
(PID.TID 0000.0001) // =======================================================
(PID.TID 0000.0001) %MON time_tsnumber                =                     4
(PID.TID 0000.0001) %MON time_secondsf                =   3.6000000000000E+04
(PID.TID 0000.0001) %MON dynstat_eta_max              =   1.9627523432148E-01
(PID.TID 0000.0001) %MON dynstat_eta_min              =  -2.7139544271536E-01
(PID.TID 0000.0001) %MON dynstat_eta_mean             =  -2.2059871466606E-17
(PID.TID 0000.0001) %MON dynstat_eta_sd               =   1.0331295930580E-01
(PID.TID 0000.0001) %MON dynstat_eta_del2             =   4.4229518643344E-03
(PID.TID 0000.0001) %MON dynstat_uvel_max             =   1.7729324991028E-01
(PID.TID 0000.0001) %MON dynstat_uvel_min             =  -1.1629381108722E-01
(PID.TID 0000.0001) %MON dynstat_uvel_mean            =  -8.1544865999458E-04
(PID.TID 0000.0001) %MON dynstat_uvel_sd              =   4.7708105845089E-03
(PID.TID 0000.0001) %MON dynstat_uvel_del2            =   1.5988856117880E-03
(PID.TID 0000.0001) %MON dynstat_vvel_max             =   3.9463403370927E-02
(PID.TID 0000.0001) %MON dynstat_vvel_min             =  -9.2428672868134E-02
(PID.TID 0000.0001) %MON dynstat_vvel_mean            =  -6.6445668151772E-04
(PID.TID 0000.0001) %MON dynstat_vvel_sd              =   5.2342068454862E-03
(PID.TID 0000.0001) %MON dynstat_vvel_del2            =   2.0508378908267E-03
(PID.TID 0000.0001) %MON dynstat_wvel_max             =   1.1374977613845E-04
(PID.TID 0000.0001) %MON dynstat_wvel_min             =  -1.8465571191322E-04
(PID.TID 0000.0001) %MON dynstat_wvel_mean            =  -9.0038297538675E-22
(PID.TID 0000.0001) %MON dynstat_wvel_sd              =   2.9999548572732E-05
(PID.TID 0000.0001) %MON dynstat_wvel_del2            =   7.3599556854015E-06
(PID.TID 0000.0001) %MON dynstat_theta_max            =   2.6072017664023E+01
(PID.TID 0000.0001) %MON dynstat_theta_min            =   1.8064387900582E+00
(PID.TID 0000.0001) %MON dynstat_theta_mean           =   5.4784563949555E+00
(PID.TID 0000.0001) %MON dynstat_theta_sd             =   4.5925475936748E+00
(PID.TID 0000.0001) %MON dynstat_theta_del2           =   5.0795021129750E-02
(PID.TID 0000.0001) %MON dynstat_salt_max             =   3.7401004764582E+01
(PID.TID 0000.0001) %MON dynstat_salt_min             =   3.4726787700839E+01
(PID.TID 0000.0001) %MON dynstat_salt_mean            =   3.5157555204999E+01
(PID.TID 0000.0001) %MON dynstat_salt_sd              =   4.1376759433727E-01
(PID.TID 0000.0001) %MON dynstat_salt_del2            =   1.2629507640145E-02
(PID.TID 0000.0001) %MON extforcing_qnet_max          =   2.7849277496338E+01
(PID.TID 0000.0001) %MON extforcing_qnet_min          =  -1.7390786361694E+02
(PID.TID 0000.0001) %MON extforcing_qnet_mean         =  -8.3321037259321E+01
(PID.TID 0000.0001) %MON extforcing_qnet_sd           =   5.1779127338922E+01
(PID.TID 0000.0001) %MON extforcing_qnet_del2         =   8.1563966591370E+00
(PID.TID 0000.0001) %MON extforcing_qsw_max           =  -1.5086550521851E+02
(PID.TID 0000.0001) %MON extforcing_qsw_min           =  -3.1335008239746E+02
(PID.TID 0000.0001) %MON extforcing_qsw_mean          =  -2.4706559564349E+02
(PID.TID 0000.0001) %MON extforcing_qsw_sd            =   4.1383764013908E+01
(PID.TID 0000.0001) %MON extforcing_qsw_del2          =   5.9498440314984E+00
(PID.TID 0000.0001) %MON extforcing_empmr_max         =   6.4426636034298E-05
(PID.TID 0000.0001) %MON extforcing_empmr_min         =   1.2552491148599E-05
(PID.TID 0000.0001) %MON extforcing_empmr_mean        =   3.7910529177446E-05
(PID.TID 0000.0001) %MON extforcing_empmr_sd          =   1.1927699455179E-05
(PID.TID 0000.0001) %MON extforcing_empmr_del2        =   2.2496353002382E-06
(PID.TID 0000.0001) %MON advcfl_uvel_max              =   3.6935613046568E-03
(PID.TID 0000.0001) %MON advcfl_vvel_max              =   1.4964507300488E-03
(PID.TID 0000.0001) %MON advcfl_wvel_max              =   8.8164584462610E-03
(PID.TID 0000.0001) %MON advcfl_W_hf_max              =   7.0701993641936E-03
(PID.TID 0000.0001) %MON pe_b_mean                    =   1.2865945610782E-05
(PID.TID 0000.0001) %MON ke_max                       =   9.3877888777255E-03
(PID.TID 0000.0001) %MON ke_mean                      =   2.2775945090570E-05
(PID.TID 0000.0001) %MON ke_vol                       =   3.6027486600263E+16
(PID.TID 0000.0001) %MON vort_r_min                   =  -6.3303446511742E-07
(PID.TID 0000.0001) %MON vort_r_max                   =   8.0893957498919E-07
(PID.TID 0000.0001) %MON vort_a_mean                  =   6.1944475191297E-05
(PID.TID 0000.0001) %MON vort_a_sd                    =   1.9197038902063E-05
(PID.TID 0000.0001) %MON vort_p_mean                  =   7.7881882182936E-05
(PID.TID 0000.0001) %MON vort_p_sd                    =   5.6363284339145E-05
(PID.TID 0000.0001) %MON surfExpan_theta_mean         =   7.8261498518345E-06
(PID.TID 0000.0001) %MON surfExpan_salt_mean          =   2.1510739871781E-07
(PID.TID 0000.0001) // =======================================================
(PID.TID 0000.0001) // End MONITOR dynamic field statistics
(PID.TID 0000.0001) // =======================================================
(PID.TID 0000.0001) // =======================================================
(PID.TID 0000.0001) // Begin MONITOR ptracer field statistics
(PID.TID 0000.0001) // =======================================================
(PID.TID 0000.0001) %MON trcstat_ptracer01_max        =   3.7400370950535E+01
(PID.TID 0000.0001) %MON trcstat_ptracer01_min        =   3.4726781760162E+01
(PID.TID 0000.0001) %MON trcstat_ptracer01_mean       =   3.5157551977408E+01
(PID.TID 0000.0001) %MON trcstat_ptracer01_sd         =   4.1375914968449E-01
(PID.TID 0000.0001) %MON trcstat_ptracer01_del2       =   1.2629245224703E-02
(PID.TID 0000.0001) // =======================================================
(PID.TID 0000.0001) // End MONITOR ptracers field statistics
(PID.TID 0000.0001) // =======================================================
time,SST,SSS,fu,fv,Q,E-P,i0,i1,a,b =   3.6000E+04  0.0000E+00  0.0000E+00 -0.0000E+00 -0.0000E+00  0.0000E+00  0.0000E+00     1     2  3.3333E-01  6.6667E-01
time,fu0,fu1,fu =   3.6000E+04 -0.0000E+00 -0.0000E+00 -0.0000E+00  3.333333333333333E-01  6.666666666666667E-01
 cg2d: Sum(rhs),rhsMax =   0.00000000000000E+00  6.21192471700971E-01
(PID.TID 0000.0001)                    cg2d_init_res =    2.45519193793290E-01
(PID.TID 0000.0001)                       cg2d_iters =    47
(PID.TID 0000.0001)                         cg2d_res =    3.92864186768744E-14
(PID.TID 0000.0001) // =======================================================
(PID.TID 0000.0001) // Begin MONITOR dynamic field statistics
(PID.TID 0000.0001) // =======================================================
(PID.TID 0000.0001) %MON time_tsnumber                =                     5
(PID.TID 0000.0001) %MON time_secondsf                =   3.9600000000000E+04
(PID.TID 0000.0001) %MON dynstat_eta_max              =   1.8812519251957E-01
(PID.TID 0000.0001) %MON dynstat_eta_min              =  -2.8341871396187E-01
(PID.TID 0000.0001) %MON dynstat_eta_mean             =  -1.1029935733303E-17
(PID.TID 0000.0001) %MON dynstat_eta_sd               =   1.0493945443597E-01
(PID.TID 0000.0001) %MON dynstat_eta_del2             =   4.5216806527410E-03
(PID.TID 0000.0001) %MON dynstat_uvel_max             =   1.7858604550787E-01
(PID.TID 0000.0001) %MON dynstat_uvel_min             =  -1.3307035883044E-01
(PID.TID 0000.0001) %MON dynstat_uvel_mean            =  -5.2554162684110E-05
(PID.TID 0000.0001) %MON dynstat_uvel_sd              =   5.7606470292234E-03
(PID.TID 0000.0001) %MON dynstat_uvel_del2            =   1.9808823584110E-03
(PID.TID 0000.0001) %MON dynstat_vvel_max             =   4.5078382494900E-02
(PID.TID 0000.0001) %MON dynstat_vvel_min             =  -1.1024454826047E-01
(PID.TID 0000.0001) %MON dynstat_vvel_mean            =  -7.6634716210909E-04
(PID.TID 0000.0001) %MON dynstat_vvel_sd              =   6.0299083420151E-03
(PID.TID 0000.0001) %MON dynstat_vvel_del2            =   2.3260880856488E-03
(PID.TID 0000.0001) %MON dynstat_wvel_max             =   1.2006618867592E-04
(PID.TID 0000.0001) %MON dynstat_wvel_min             =  -1.7857406284220E-04
(PID.TID 0000.0001) %MON dynstat_wvel_mean            =   1.8007659507735E-21
(PID.TID 0000.0001) %MON dynstat_wvel_sd              =   3.3539226300675E-05
(PID.TID 0000.0001) %MON dynstat_wvel_del2            =   8.2477901339725E-06
(PID.TID 0000.0001) %MON dynstat_theta_max            =   2.6070337612402E+01
(PID.TID 0000.0001) %MON dynstat_theta_min            =   1.8064399464229E+00
(PID.TID 0000.0001) %MON dynstat_theta_mean           =   5.4784684173104E+00
(PID.TID 0000.0001) %MON dynstat_theta_sd             =   4.5925865135378E+00
(PID.TID 0000.0001) %MON dynstat_theta_del2           =   5.0764637022340E-02
(PID.TID 0000.0001) %MON dynstat_salt_max             =   3.7401328003641E+01
(PID.TID 0000.0001) %MON dynstat_salt_min             =   3.4726790796832E+01
(PID.TID 0000.0001) %MON dynstat_salt_mean            =   3.5157556786277E+01
(PID.TID 0000.0001) %MON dynstat_salt_sd              =   4.1377159627344E-01
(PID.TID 0000.0001) %MON dynstat_salt_del2            =   1.2629518617964E-02
(PID.TID 0000.0001) %MON extforcing_qnet_max          =   2.9530278523763E+01
(PID.TID 0000.0001) %MON extforcing_qnet_min          =  -1.7256501770020E+02
(PID.TID 0000.0001) %MON extforcing_qnet_mean         =  -8.2352840011605E+01
(PID.TID 0000.0001) %MON extforcing_qnet_sd           =   5.1710478801745E+01
(PID.TID 0000.0001) %MON extforcing_qnet_del2         =   8.1218630723374E+00
(PID.TID 0000.0001) %MON extforcing_qsw_max           =  -1.5001865641276E+02
(PID.TID 0000.0001) %MON extforcing_qsw_min           =  -3.1394491577148E+02
(PID.TID 0000.0001) %MON extforcing_qsw_mean          =  -2.4734519533530E+02
(PID.TID 0000.0001) %MON extforcing_qsw_sd            =   4.1486783235049E+01
(PID.TID 0000.0001) %MON extforcing_qsw_del2          =   5.9332652099810E+00
(PID.TID 0000.0001) %MON extforcing_empmr_max         =   6.4899390483693E-05
(PID.TID 0000.0001) %MON extforcing_empmr_min         =   1.2702203566780E-05
(PID.TID 0000.0001) %MON extforcing_empmr_mean        =   3.8299888725552E-05
(PID.TID 0000.0001) %MON extforcing_empmr_sd          =   1.1884538019288E-05
(PID.TID 0000.0001) %MON extforcing_empmr_del2        =   2.2496460070999E-06
(PID.TID 0000.0001) %MON advcfl_uvel_max              =   3.7204941957653E-03
(PID.TID 0000.0001) %MON advcfl_vvel_max              =   1.7848956347523E-03
(PID.TID 0000.0001) %MON advcfl_wvel_max              =   4.3019207435316E-03
(PID.TID 0000.0001) %MON advcfl_W_hf_max              =   4.0660246239099E-03
(PID.TID 0000.0001) %MON pe_b_mean                    =   1.3274241416744E-05
(PID.TID 0000.0001) %MON ke_max                       =   1.0061013410394E-02
(PID.TID 0000.0001) %MON ke_mean                      =   3.1172591397504E-05
(PID.TID 0000.0001) %MON ke_vol                       =   3.6027486600263E+16
(PID.TID 0000.0001) %MON vort_r_min                   =  -6.0328373104233E-07
(PID.TID 0000.0001) %MON vort_r_max                   =   8.1483824017692E-07
(PID.TID 0000.0001) %MON vort_a_mean                  =   6.1944475191297E-05
(PID.TID 0000.0001) %MON vort_a_sd                    =   1.9197682117054E-05
(PID.TID 0000.0001) %MON vort_p_mean                  =   7.7881882182936E-05
(PID.TID 0000.0001) %MON vort_p_sd                    =   5.6364965946257E-05
(PID.TID 0000.0001) %MON surfExpan_theta_mean         =   5.5547997850186E-06
(PID.TID 0000.0001) %MON surfExpan_salt_mean          =  -4.7636709768073E-07
(PID.TID 0000.0001) // =======================================================
(PID.TID 0000.0001) // End MONITOR dynamic field statistics
(PID.TID 0000.0001) // =======================================================
(PID.TID 0000.0001) // =======================================================
(PID.TID 0000.0001) // Begin MONITOR ptracer field statistics
(PID.TID 0000.0001) // =======================================================
(PID.TID 0000.0001) %MON trcstat_ptracer01_max        =   3.7400370950535E+01
(PID.TID 0000.0001) %MON trcstat_ptracer01_min        =   3.4726781760162E+01
(PID.TID 0000.0001) %MON trcstat_ptracer01_mean       =   3.5157551977408E+01
(PID.TID 0000.0001) %MON trcstat_ptracer01_sd         =   4.1375914968449E-01
(PID.TID 0000.0001) %MON trcstat_ptracer01_del2       =   1.2629245224703E-02
(PID.TID 0000.0001) // =======================================================
(PID.TID 0000.0001) // End MONITOR ptracers field statistics
(PID.TID 0000.0001) // =======================================================
time,SST,SSS,fu,fv,Q,E-P,i0,i1,a,b =   3.9600E+04  0.0000E+00  0.0000E+00 -0.0000E+00 -0.0000E+00  0.0000E+00  0.0000E+00     1     2  4.1667E-01  5.8333E-01
time,fu0,fu1,fu =   3.9600E+04 -0.0000E+00 -0.0000E+00 -0.0000E+00  4.166666666666667E-01  5.833333333333333E-01
 cg2d: Sum(rhs),rhsMax =   1.42108547152020E-14  6.21735103519832E-01
(PID.TID 0000.0001)                    cg2d_init_res =    2.80983853473142E-01
(PID.TID 0000.0001)                       cg2d_iters =    47
(PID.TID 0000.0001)                         cg2d_res =    4.16091628785006E-14
(PID.TID 0000.0001) // =======================================================
(PID.TID 0000.0001) // Begin MONITOR dynamic field statistics
(PID.TID 0000.0001) // =======================================================
(PID.TID 0000.0001) %MON time_tsnumber                =                     6
(PID.TID 0000.0001) %MON time_secondsf                =   4.3200000000000E+04
(PID.TID 0000.0001) %MON dynstat_eta_max              =   1.8435314393233E-01
(PID.TID 0000.0001) %MON dynstat_eta_min              =  -2.7976403211742E-01
(PID.TID 0000.0001) %MON dynstat_eta_mean             =  -4.9634710799864E-17
(PID.TID 0000.0001) %MON dynstat_eta_sd               =   1.0063804459734E-01
(PID.TID 0000.0001) %MON dynstat_eta_del2             =   4.5949845725344E-03
(PID.TID 0000.0001) %MON dynstat_uvel_max             =   1.6455302815104E-01
(PID.TID 0000.0001) %MON dynstat_uvel_min             =  -1.4808099208900E-01
(PID.TID 0000.0001) %MON dynstat_uvel_mean            =   4.2995481095146E-04
(PID.TID 0000.0001) %MON dynstat_uvel_sd              =   6.6894462267807E-03
(PID.TID 0000.0001) %MON dynstat_uvel_del2            =   2.3477428603731E-03
(PID.TID 0000.0001) %MON dynstat_vvel_max             =   4.8019139887209E-02
(PID.TID 0000.0001) %MON dynstat_vvel_min             =  -1.2223396701550E-01
(PID.TID 0000.0001) %MON dynstat_vvel_mean            =  -6.5906997831045E-04
(PID.TID 0000.0001) %MON dynstat_vvel_sd              =   6.6021741733311E-03
(PID.TID 0000.0001) %MON dynstat_vvel_del2            =   2.4767230685004E-03
(PID.TID 0000.0001) %MON dynstat_wvel_max             =   1.3291209449178E-04
(PID.TID 0000.0001) %MON dynstat_wvel_min             =  -1.5756519188455E-04
(PID.TID 0000.0001) %MON dynstat_wvel_mean            =   3.9391755173170E-22
(PID.TID 0000.0001) %MON dynstat_wvel_sd              =   3.5676436195111E-05
(PID.TID 0000.0001) %MON dynstat_wvel_del2            =   8.7025390556605E-06
(PID.TID 0000.0001) %MON dynstat_theta_max            =   2.6075207238701E+01
(PID.TID 0000.0001) %MON dynstat_theta_min            =   1.8064415355878E+00
(PID.TID 0000.0001) %MON dynstat_theta_mean           =   5.4784825759432E+00
(PID.TID 0000.0001) %MON dynstat_theta_sd             =   4.5926328633073E+00
(PID.TID 0000.0001) %MON dynstat_theta_del2           =   5.0737600065468E-02
(PID.TID 0000.0001) %MON dynstat_salt_max             =   3.7401567404332E+01
(PID.TID 0000.0001) %MON dynstat_salt_min             =   3.4726792423159E+01
(PID.TID 0000.0001) %MON dynstat_salt_mean            =   3.5157558839709E+01
(PID.TID 0000.0001) %MON dynstat_salt_sd              =   4.1377699390543E-01
(PID.TID 0000.0001) %MON dynstat_salt_del2            =   1.2629464473382E-02
(PID.TID 0000.0001) %MON extforcing_qnet_max          =   3.2348238627116E+01
(PID.TID 0000.0001) %MON extforcing_qnet_min          =  -1.7122217178345E+02
(PID.TID 0000.0001) %MON extforcing_qnet_mean         =  -8.1384642763889E+01
(PID.TID 0000.0001) %MON extforcing_qnet_sd           =   5.1672237657836E+01
(PID.TID 0000.0001) %MON extforcing_qnet_del2         =   8.1030238077950E+00
(PID.TID 0000.0001) %MON extforcing_qsw_max           =  -1.4917180760701E+02
(PID.TID 0000.0001) %MON extforcing_qsw_min           =  -3.1453974914551E+02
(PID.TID 0000.0001) %MON extforcing_qsw_mean          =  -2.4762479502712E+02
(PID.TID 0000.0001) %MON extforcing_qsw_sd            =   4.1612615008714E+01
(PID.TID 0000.0001) %MON extforcing_qsw_del2          =   5.9226507240133E+00
(PID.TID 0000.0001) %MON extforcing_empmr_max         =   6.5372144933088E-05
(PID.TID 0000.0001) %MON extforcing_empmr_min         =   1.2851915984961E-05
(PID.TID 0000.0001) %MON extforcing_empmr_mean        =   3.8689248273659E-05
(PID.TID 0000.0001) %MON extforcing_empmr_sd          =   1.1851657181705E-05
(PID.TID 0000.0001) %MON extforcing_empmr_del2        =   2.2510213879891E-06
(PID.TID 0000.0001) %MON advcfl_uvel_max              =   3.4281434721872E-03
(PID.TID 0000.0001) %MON advcfl_vvel_max              =   1.9790082828309E-03
(PID.TID 0000.0001) %MON advcfl_wvel_max              =   6.3534713327083E-03
(PID.TID 0000.0001) %MON advcfl_W_hf_max              =   4.4670042456426E-03
(PID.TID 0000.0001) %MON pe_b_mean                    =   1.2208336390284E-05
(PID.TID 0000.0001) %MON ke_max                       =   1.0948966950978E-02
(PID.TID 0000.0001) %MON ke_mean                      =   3.9569508795942E-05
(PID.TID 0000.0001) %MON ke_vol                       =   3.6027486600263E+16
(PID.TID 0000.0001) %MON vort_r_min                   =  -5.2288570145992E-07
(PID.TID 0000.0001) %MON vort_r_max                   =   7.5080950190178E-07
(PID.TID 0000.0001) %MON vort_a_mean                  =   6.1944475191297E-05
(PID.TID 0000.0001) %MON vort_a_sd                    =   1.9198087013760E-05
(PID.TID 0000.0001) %MON vort_p_mean                  =   7.7881882182936E-05
(PID.TID 0000.0001) %MON vort_p_sd                    =   5.6366331368597E-05
(PID.TID 0000.0001) %MON surfExpan_theta_mean         =   2.9250492955436E-06
(PID.TID 0000.0001) %MON surfExpan_salt_mean          =  -7.8862014580636E-07
(PID.TID 0000.0001) // =======================================================
(PID.TID 0000.0001) // End MONITOR dynamic field statistics
(PID.TID 0000.0001) // =======================================================
(PID.TID 0000.0001) // =======================================================
(PID.TID 0000.0001) // Begin MONITOR ptracer field statistics
(PID.TID 0000.0001) // =======================================================
(PID.TID 0000.0001) %MON trcstat_ptracer01_max        =   3.7400525799627E+01
(PID.TID 0000.0001) %MON trcstat_ptracer01_min        =   3.4726791230037E+01
(PID.TID 0000.0001) %MON trcstat_ptracer01_mean       =   3.5157552915459E+01
(PID.TID 0000.0001) %MON trcstat_ptracer01_sd         =   4.1375957753258E-01
(PID.TID 0000.0001) %MON trcstat_ptracer01_del2       =   1.2630982680058E-02
(PID.TID 0000.0001) // =======================================================
(PID.TID 0000.0001) // End MONITOR ptracers field statistics
(PID.TID 0000.0001) // =======================================================
 Computing Diagnostic #    211  TRAC01       Counter:       1   Parms: SM P    MR      
time,SST,SSS,fu,fv,Q,E-P,i0,i1,a,b =   4.3200E+04  0.0000E+00  0.0000E+00 -0.0000E+00 -0.0000E+00  0.0000E+00  0.0000E+00     1     2  5.0000E-01  5.0000E-01
time,fu0,fu1,fu =   4.3200E+04 -0.0000E+00 -0.0000E+00 -0.0000E+00  5.000000000000000E-01  5.000000000000000E-01
 cg2d: Sum(rhs),rhsMax =   8.88178419700125E-15  6.11203634513869E-01
(PID.TID 0000.0001)                    cg2d_init_res =    2.63051983682249E-01
(PID.TID 0000.0001)                       cg2d_iters =    47
(PID.TID 0000.0001)                         cg2d_res =    4.30400892624093E-14
(PID.TID 0000.0001) // =======================================================
(PID.TID 0000.0001) // Begin MONITOR dynamic field statistics
(PID.TID 0000.0001) // =======================================================
(PID.TID 0000.0001) %MON time_tsnumber                =                     7
(PID.TID 0000.0001) %MON time_secondsf                =   4.6800000000000E+04
(PID.TID 0000.0001) %MON dynstat_eta_max              =   1.7621951848806E-01
(PID.TID 0000.0001) %MON dynstat_eta_min              =  -2.6854973483154E-01
(PID.TID 0000.0001) %MON dynstat_eta_mean             =  -3.8604775066561E-17
(PID.TID 0000.0001) %MON dynstat_eta_sd               =   9.4045415632348E-02
(PID.TID 0000.0001) %MON dynstat_eta_del2             =   4.6231658552837E-03
(PID.TID 0000.0001) %MON dynstat_uvel_max             =   1.4452798112466E-01
(PID.TID 0000.0001) %MON dynstat_uvel_min             =  -1.6147188006305E-01
(PID.TID 0000.0001) %MON dynstat_uvel_mean            =   6.0829118927660E-04
(PID.TID 0000.0001) %MON dynstat_uvel_sd              =   7.5162212680122E-03
(PID.TID 0000.0001) %MON dynstat_uvel_del2            =   2.6837839746637E-03
(PID.TID 0000.0001) %MON dynstat_vvel_max             =   5.0487353199261E-02
(PID.TID 0000.0001) %MON dynstat_vvel_min             =  -1.2764263294306E-01
(PID.TID 0000.0001) %MON dynstat_vvel_mean            =  -3.7950989502914E-04
(PID.TID 0000.0001) %MON dynstat_vvel_sd              =   6.9767066341713E-03
(PID.TID 0000.0001) %MON dynstat_vvel_del2            =   2.5129143278528E-03
(PID.TID 0000.0001) %MON dynstat_wvel_max             =   1.3830522961523E-04
(PID.TID 0000.0001) %MON dynstat_wvel_min             =  -1.5787143791078E-04
(PID.TID 0000.0001) %MON dynstat_wvel_mean            =  -6.6825298954485E-22
(PID.TID 0000.0001) %MON dynstat_wvel_sd              =   3.6487982315087E-05
(PID.TID 0000.0001) %MON dynstat_wvel_del2            =   8.7192310071942E-06
(PID.TID 0000.0001) %MON dynstat_theta_max            =   2.6081903730522E+01
(PID.TID 0000.0001) %MON dynstat_theta_min            =   1.8064433217398E+00
(PID.TID 0000.0001) %MON dynstat_theta_mean           =   5.4784990388260E+00
(PID.TID 0000.0001) %MON dynstat_theta_sd             =   4.5926875382896E+00
(PID.TID 0000.0001) %MON dynstat_theta_del2           =   5.0719767032658E-02
(PID.TID 0000.0001) %MON dynstat_salt_max             =   3.7401887667826E+01
(PID.TID 0000.0001) %MON dynstat_salt_min             =   3.4726792997328E+01
(PID.TID 0000.0001) %MON dynstat_salt_mean            =   3.5157560978555E+01
(PID.TID 0000.0001) %MON dynstat_salt_sd              =   4.1378272423846E-01
(PID.TID 0000.0001) %MON dynstat_salt_del2            =   1.2630096121808E-02
(PID.TID 0000.0001) %MON extforcing_qnet_max          =   3.5166198730469E+01
(PID.TID 0000.0001) %MON extforcing_qnet_min          =  -1.6987932586670E+02
(PID.TID 0000.0001) %MON extforcing_qnet_mean         =  -8.0416445516173E+01
(PID.TID 0000.0001) %MON extforcing_qnet_sd           =   5.1664471428311E+01
(PID.TID 0000.0001) %MON extforcing_qnet_del2         =   8.0872703890495E+00
(PID.TID 0000.0001) %MON extforcing_qsw_max           =  -1.4832495880127E+02
(PID.TID 0000.0001) %MON extforcing_qsw_min           =  -3.1513458251953E+02
(PID.TID 0000.0001) %MON extforcing_qsw_mean          =  -2.4790439471893E+02
(PID.TID 0000.0001) %MON extforcing_qsw_sd            =   4.1761053123375E+01
(PID.TID 0000.0001) %MON extforcing_qsw_del2          =   5.9130193400266E+00
(PID.TID 0000.0001) %MON extforcing_empmr_max         =   6.5844899382483E-05
(PID.TID 0000.0001) %MON extforcing_empmr_min         =   1.3001628403142E-05
(PID.TID 0000.0001) %MON extforcing_empmr_mean        =   3.9078607821765E-05
(PID.TID 0000.0001) %MON extforcing_empmr_sd          =   1.1829142672036E-05
(PID.TID 0000.0001) %MON extforcing_empmr_del2        =   2.2531052097796E-06
(PID.TID 0000.0001) %MON advcfl_uvel_max              =   3.0109604217439E-03
(PID.TID 0000.0001) %MON advcfl_vvel_max              =   2.0665763699269E-03
(PID.TID 0000.0001) %MON advcfl_wvel_max              =   6.3627045122542E-03
(PID.TID 0000.0001) %MON advcfl_W_hf_max              =   5.7527887313518E-03
(PID.TID 0000.0001) %MON pe_b_mean                    =   1.0661231358600E-05
(PID.TID 0000.0001) %MON ke_max                       =   1.2997370695901E-02
(PID.TID 0000.0001) %MON ke_mean                      =   4.7047658488919E-05
(PID.TID 0000.0001) %MON ke_vol                       =   3.6027486600263E+16
(PID.TID 0000.0001) %MON vort_r_min                   =  -4.3307371528497E-07
(PID.TID 0000.0001) %MON vort_r_max                   =   7.0688264251973E-07
(PID.TID 0000.0001) %MON vort_a_mean                  =   6.1944475191297E-05
(PID.TID 0000.0001) %MON vort_a_sd                    =   1.9198233911129E-05
(PID.TID 0000.0001) %MON vort_p_mean                  =   7.7881882182936E-05
(PID.TID 0000.0001) %MON vort_p_sd                    =   5.6367165552418E-05
(PID.TID 0000.0001) %MON surfExpan_theta_mean         =   2.6838194746464E-07
(PID.TID 0000.0001) %MON surfExpan_salt_mean          =  -7.5128847351855E-07
(PID.TID 0000.0001) // =======================================================
(PID.TID 0000.0001) // End MONITOR dynamic field statistics
(PID.TID 0000.0001) // =======================================================
(PID.TID 0000.0001) // =======================================================
(PID.TID 0000.0001) // Begin MONITOR ptracer field statistics
(PID.TID 0000.0001) // =======================================================
(PID.TID 0000.0001) %MON trcstat_ptracer01_max        =   3.7400525799627E+01
(PID.TID 0000.0001) %MON trcstat_ptracer01_min        =   3.4726791230037E+01
(PID.TID 0000.0001) %MON trcstat_ptracer01_mean       =   3.5157552915459E+01
(PID.TID 0000.0001) %MON trcstat_ptracer01_sd         =   4.1375957753258E-01
(PID.TID 0000.0001) %MON trcstat_ptracer01_del2       =   1.2630982680058E-02
(PID.TID 0000.0001) // =======================================================
(PID.TID 0000.0001) // End MONITOR ptracers field statistics
(PID.TID 0000.0001) // =======================================================
time,SST,SSS,fu,fv,Q,E-P,i0,i1,a,b =   4.6800E+04  0.0000E+00  0.0000E+00 -0.0000E+00 -0.0000E+00  0.0000E+00  0.0000E+00     1     2  5.8333E-01  4.1667E-01
time,fu0,fu1,fu =   4.6800E+04 -0.0000E+00 -0.0000E+00 -0.0000E+00  5.833333333333334E-01  4.166666666666666E-01
 cg2d: Sum(rhs),rhsMax =   7.10542735760100E-15  5.95011284518275E-01
(PID.TID 0000.0001)                    cg2d_init_res =    2.04002824882373E-01
(PID.TID 0000.0001)                       cg2d_iters =    47
(PID.TID 0000.0001)                         cg2d_res =    3.87160931925039E-14
(PID.TID 0000.0001) // =======================================================
(PID.TID 0000.0001) // Begin MONITOR dynamic field statistics
(PID.TID 0000.0001) // =======================================================
(PID.TID 0000.0001) %MON time_tsnumber                =                     8
(PID.TID 0000.0001) %MON time_secondsf                =   5.0400000000000E+04
(PID.TID 0000.0001) %MON dynstat_eta_max              =   1.6655195891422E-01
(PID.TID 0000.0001) %MON dynstat_eta_min              =  -2.5258744018146E-01
(PID.TID 0000.0001) %MON dynstat_eta_mean             =  -7.7209550133122E-17
(PID.TID 0000.0001) %MON dynstat_eta_sd               =   8.6937418987045E-02
(PID.TID 0000.0001) %MON dynstat_eta_del2             =   4.6361412863737E-03
(PID.TID 0000.0001) %MON dynstat_uvel_max             =   1.2027771640955E-01
(PID.TID 0000.0001) %MON dynstat_uvel_min             =  -1.7318030142161E-01
(PID.TID 0000.0001) %MON dynstat_uvel_mean            =   5.6370636241573E-04
(PID.TID 0000.0001) %MON dynstat_uvel_sd              =   8.2142666697200E-03
(PID.TID 0000.0001) %MON dynstat_uvel_del2            =   2.9845337096485E-03
(PID.TID 0000.0001) %MON dynstat_vvel_max             =   5.3655111486929E-02
(PID.TID 0000.0001) %MON dynstat_vvel_min             =  -1.2640980809200E-01
(PID.TID 0000.0001) %MON dynstat_vvel_mean            =  -3.4798812977967E-05
(PID.TID 0000.0001) %MON dynstat_vvel_sd              =   7.1924009039554E-03
(PID.TID 0000.0001) %MON dynstat_vvel_del2            =   2.4537458290851E-03
(PID.TID 0000.0001) %MON dynstat_wvel_max             =   1.3879071208231E-04
(PID.TID 0000.0001) %MON dynstat_wvel_min             =  -1.6485037931945E-04
(PID.TID 0000.0001) %MON dynstat_wvel_mean            =   8.7224600740591E-22
(PID.TID 0000.0001) %MON dynstat_wvel_sd              =   3.6267524837543E-05
(PID.TID 0000.0001) %MON dynstat_wvel_del2            =   8.3413985964766E-06
(PID.TID 0000.0001) %MON dynstat_theta_max            =   2.6088654022247E+01
(PID.TID 0000.0001) %MON dynstat_theta_min            =   1.8064451113014E+00
(PID.TID 0000.0001) %MON dynstat_theta_mean           =   5.4785176539859E+00
(PID.TID 0000.0001) %MON dynstat_theta_sd             =   4.5927501968860E+00
(PID.TID 0000.0001) %MON dynstat_theta_del2           =   5.0711416343707E-02
(PID.TID 0000.0001) %MON dynstat_salt_max             =   3.7402193587389E+01
(PID.TID 0000.0001) %MON dynstat_salt_min             =   3.4726793007477E+01
(PID.TID 0000.0001) %MON dynstat_salt_mean            =   3.5157562909440E+01
(PID.TID 0000.0001) %MON dynstat_salt_sd              =   4.1378799138593E-01
(PID.TID 0000.0001) %MON dynstat_salt_del2            =   1.2630813364906E-02
(PID.TID 0000.0001) %MON extforcing_qnet_max          =   3.7984158833822E+01
(PID.TID 0000.0001) %MON extforcing_qnet_min          =  -1.6853647994995E+02
(PID.TID 0000.0001) %MON extforcing_qnet_mean         =  -7.9448248268458E+01
(PID.TID 0000.0001) %MON extforcing_qnet_sd           =   5.1687193850144E+01
(PID.TID 0000.0001) %MON extforcing_qnet_del2         =   8.0776038898036E+00
(PID.TID 0000.0001) %MON extforcing_qsw_max           =  -1.4661845270793E+02
(PID.TID 0000.0001) %MON extforcing_qsw_min           =  -3.1572941589355E+02
(PID.TID 0000.0001) %MON extforcing_qsw_mean          =  -2.4818399441075E+02
(PID.TID 0000.0001) %MON extforcing_qsw_sd            =   4.1931857501445E+01
(PID.TID 0000.0001) %MON extforcing_qsw_del2          =   5.9088638850621E+00
(PID.TID 0000.0001) %MON extforcing_empmr_max         =   6.6317653831878E-05
(PID.TID 0000.0001) %MON extforcing_empmr_min         =   1.3151340821323E-05
(PID.TID 0000.0001) %MON extforcing_empmr_mean        =   3.9467967369872E-05
(PID.TID 0000.0001) %MON extforcing_empmr_sd          =   1.1817053741946E-05
(PID.TID 0000.0001) %MON extforcing_empmr_del2        =   2.2562164364477E-06
(PID.TID 0000.0001) %MON advcfl_uvel_max              =   2.9027552437585E-03
(PID.TID 0000.0001) %MON advcfl_vvel_max              =   2.0466165285579E-03
(PID.TID 0000.0001) %MON advcfl_wvel_max              =   5.5840473636573E-03
(PID.TID 0000.0001) %MON advcfl_W_hf_max              =   6.1685724430013E-03
(PID.TID 0000.0001) %MON pe_b_mean                    =   9.1105709168405E-06
(PID.TID 0000.0001) %MON ke_max                       =   1.4980983180421E-02
(PID.TID 0000.0001) %MON ke_mean                      =   5.3248094041314E-05
(PID.TID 0000.0001) %MON ke_vol                       =   3.6027486600263E+16
(PID.TID 0000.0001) %MON vort_r_min                   =  -3.5058708621092E-07
(PID.TID 0000.0001) %MON vort_r_max                   =   7.5479695254945E-07
(PID.TID 0000.0001) %MON vort_a_mean                  =   6.1944475191297E-05
(PID.TID 0000.0001) %MON vort_a_sd                    =   1.9198192163157E-05
(PID.TID 0000.0001) %MON vort_p_mean                  =   7.7881882182936E-05
(PID.TID 0000.0001) %MON vort_p_sd                    =   5.6367448999293E-05
(PID.TID 0000.0001) %MON surfExpan_theta_mean         =  -1.9851565168215E-06
(PID.TID 0000.0001) %MON surfExpan_salt_mean          =  -4.8235289926931E-07
(PID.TID 0000.0001) // =======================================================
(PID.TID 0000.0001) // End MONITOR dynamic field statistics
(PID.TID 0000.0001) // =======================================================
(PID.TID 0000.0001) // =======================================================
(PID.TID 0000.0001) // Begin MONITOR ptracer field statistics
(PID.TID 0000.0001) // =======================================================
(PID.TID 0000.0001) %MON trcstat_ptracer01_max        =   3.7400525799627E+01
(PID.TID 0000.0001) %MON trcstat_ptracer01_min        =   3.4726791230037E+01
(PID.TID 0000.0001) %MON trcstat_ptracer01_mean       =   3.5157552915459E+01
(PID.TID 0000.0001) %MON trcstat_ptracer01_sd         =   4.1375957753258E-01
(PID.TID 0000.0001) %MON trcstat_ptracer01_del2       =   1.2630982680058E-02
(PID.TID 0000.0001) // =======================================================
(PID.TID 0000.0001) // End MONITOR ptracers field statistics
(PID.TID 0000.0001) // =======================================================
time,SST,SSS,fu,fv,Q,E-P,i0,i1,a,b =   5.0400E+04  0.0000E+00  0.0000E+00 -0.0000E+00 -0.0000E+00  0.0000E+00  0.0000E+00     1     2  6.6667E-01  3.3333E-01
time,fu0,fu1,fu =   5.0400E+04 -0.0000E+00 -0.0000E+00 -0.0000E+00  6.666666666666666E-01  3.333333333333334E-01
 cg2d: Sum(rhs),rhsMax =   2.13162820728030E-14  5.78038350102179E-01
(PID.TID 0000.0001)                    cg2d_init_res =    1.56264808546885E-01
(PID.TID 0000.0001)                       cg2d_iters =    46
(PID.TID 0000.0001)                         cg2d_res =    6.04913401681398E-14
(PID.TID 0000.0001) // =======================================================
(PID.TID 0000.0001) // Begin MONITOR dynamic field statistics
(PID.TID 0000.0001) // =======================================================
(PID.TID 0000.0001) %MON time_tsnumber                =                     9
(PID.TID 0000.0001) %MON time_secondsf                =   5.4000000000000E+04
(PID.TID 0000.0001) %MON dynstat_eta_max              =   1.5757756237826E-01
(PID.TID 0000.0001) %MON dynstat_eta_min              =  -2.3628488767206E-01
(PID.TID 0000.0001) %MON dynstat_eta_mean             =  -1.0478438946638E-16
(PID.TID 0000.0001) %MON dynstat_eta_sd               =   8.0243132460172E-02
(PID.TID 0000.0001) %MON dynstat_eta_del2             =   4.6104555855047E-03
(PID.TID 0000.0001) %MON dynstat_uvel_max             =   9.4587678930025E-02
(PID.TID 0000.0001) %MON dynstat_uvel_min             =  -1.8295205651638E-01
(PID.TID 0000.0001) %MON dynstat_uvel_mean            =   4.0524637890564E-04
(PID.TID 0000.0001) %MON dynstat_uvel_sd              =   8.7717241157528E-03
(PID.TID 0000.0001) %MON dynstat_uvel_del2            =   3.2452951887041E-03
(PID.TID 0000.0001) %MON dynstat_vvel_max             =   6.1855957107705E-02
(PID.TID 0000.0001) %MON dynstat_vvel_min             =  -1.2403209465647E-01
(PID.TID 0000.0001) %MON dynstat_vvel_mean            =   2.5726847116178E-04
(PID.TID 0000.0001) %MON dynstat_vvel_sd              =   7.2897363236486E-03
(PID.TID 0000.0001) %MON dynstat_vvel_del2            =   2.3310747531168E-03
(PID.TID 0000.0001) %MON dynstat_wvel_max             =   1.4564958200667E-04
(PID.TID 0000.0001) %MON dynstat_wvel_min             =  -1.6673445928013E-04
(PID.TID 0000.0001) %MON dynstat_wvel_mean            =   1.9695877586585E-22
(PID.TID 0000.0001) %MON dynstat_wvel_sd              =   3.5417929518596E-05
(PID.TID 0000.0001) %MON dynstat_wvel_del2            =   7.8101489523628E-06
(PID.TID 0000.0001) %MON dynstat_theta_max            =   2.6095490383276E+01
(PID.TID 0000.0001) %MON dynstat_theta_min            =   1.8064467982762E+00
(PID.TID 0000.0001) %MON dynstat_theta_mean           =   5.4785378369416E+00
(PID.TID 0000.0001) %MON dynstat_theta_sd             =   4.5928188078330E+00
(PID.TID 0000.0001) %MON dynstat_theta_del2           =   5.0714400571168E-02
(PID.TID 0000.0001) %MON dynstat_salt_max             =   3.7402535476932E+01
(PID.TID 0000.0001) %MON dynstat_salt_min             =   3.4726792841292E+01
(PID.TID 0000.0001) %MON dynstat_salt_mean            =   3.5157564490125E+01
(PID.TID 0000.0001) %MON dynstat_salt_sd              =   4.1379236064419E-01
(PID.TID 0000.0001) %MON dynstat_salt_del2            =   1.2632235841983E-02
(PID.TID 0000.0001) %MON extforcing_qnet_max          =   4.0802118937174E+01
(PID.TID 0000.0001) %MON extforcing_qnet_min          =  -1.6719363403320E+02
(PID.TID 0000.0001) %MON extforcing_qnet_mean         =  -7.8480051020742E+01
(PID.TID 0000.0001) %MON extforcing_qnet_sd           =   5.1740364754944E+01
(PID.TID 0000.0001) %MON extforcing_qnet_del2         =   8.0758395891863E+00
(PID.TID 0000.0001) %MON extforcing_qsw_max           =  -1.4420261128743E+02
(PID.TID 0000.0001) %MON extforcing_qsw_min           =  -3.1632424926758E+02
(PID.TID 0000.0001) %MON extforcing_qsw_mean          =  -2.4846359410256E+02
(PID.TID 0000.0001) %MON extforcing_qsw_sd            =   4.2124756076541E+01
(PID.TID 0000.0001) %MON extforcing_qsw_del2          =   5.9065190207195E+00
(PID.TID 0000.0001) %MON extforcing_empmr_max         =   6.6790408281274E-05
(PID.TID 0000.0001) %MON extforcing_empmr_min         =   1.3301053239504E-05
(PID.TID 0000.0001) %MON extforcing_empmr_mean        =   3.9857326917978E-05
(PID.TID 0000.0001) %MON extforcing_empmr_sd          =   1.1815422392223E-05
(PID.TID 0000.0001) %MON extforcing_empmr_del2        =   2.2620901190917E-06
(PID.TID 0000.0001) %MON advcfl_uvel_max              =   3.0665441568695E-03
(PID.TID 0000.0001) %MON advcfl_vvel_max              =   2.0081205630092E-03
(PID.TID 0000.0001) %MON advcfl_wvel_max              =   5.4012592173426E-03
(PID.TID 0000.0001) %MON advcfl_W_hf_max              =   5.9279384812897E-03
(PID.TID 0000.0001) %MON pe_b_mean                    =   7.7615392070521E-06
(PID.TID 0000.0001) %MON ke_max                       =   1.6816619975064E-02
(PID.TID 0000.0001) %MON ke_mean                      =   5.8090294497305E-05
(PID.TID 0000.0001) %MON ke_vol                       =   3.6027486600263E+16
(PID.TID 0000.0001) %MON vort_r_min                   =  -3.6982485267854E-07
(PID.TID 0000.0001) %MON vort_r_max                   =   7.9424309948070E-07
(PID.TID 0000.0001) %MON vort_a_mean                  =   6.1944475191297E-05
(PID.TID 0000.0001) %MON vort_a_sd                    =   1.9198054581108E-05
(PID.TID 0000.0001) %MON vort_p_mean                  =   7.7881882182936E-05
(PID.TID 0000.0001) %MON vort_p_sd                    =   5.6367283128044E-05
(PID.TID 0000.0001) %MON surfExpan_theta_mean         =  -3.4290515600694E-06
(PID.TID 0000.0001) %MON surfExpan_salt_mean          =  -1.4158050664518E-07
(PID.TID 0000.0001) // =======================================================
(PID.TID 0000.0001) // End MONITOR dynamic field statistics
(PID.TID 0000.0001) // =======================================================
(PID.TID 0000.0001) // =======================================================
(PID.TID 0000.0001) // Begin MONITOR ptracer field statistics
(PID.TID 0000.0001) // =======================================================
(PID.TID 0000.0001) %MON trcstat_ptracer01_max        =   3.7400648213706E+01
(PID.TID 0000.0001) %MON trcstat_ptracer01_min        =   3.4726787601758E+01
(PID.TID 0000.0001) %MON trcstat_ptracer01_mean       =   3.5157556272193E+01
(PID.TID 0000.0001) %MON trcstat_ptracer01_sd         =   4.1376806219770E-01
(PID.TID 0000.0001) %MON trcstat_ptracer01_del2       =   1.2634351548964E-02
(PID.TID 0000.0001) // =======================================================
(PID.TID 0000.0001) // End MONITOR ptracers field statistics
(PID.TID 0000.0001) // =======================================================
 Computing Diagnostic #    211  TRAC01       Counter:       1   Parms: SM P    MR      
time,SST,SSS,fu,fv,Q,E-P,i0,i1,a,b =   5.4000E+04  0.0000E+00  0.0000E+00 -0.0000E+00 -0.0000E+00  0.0000E+00  0.0000E+00     1     2  7.5000E-01  2.5000E-01
time,fu0,fu1,fu =   5.4000E+04 -0.0000E+00 -0.0000E+00 -0.0000E+00  7.500000000000000E-01  2.500000000000000E-01
 cg2d: Sum(rhs),rhsMax =   1.15463194561016E-14  5.63345415821875E-01
(PID.TID 0000.0001)                    cg2d_init_res =    1.44607865740564E-01
(PID.TID 0000.0001)                       cg2d_iters =    46
(PID.TID 0000.0001)                         cg2d_res =    8.78977394390476E-14
(PID.TID 0000.0001) // =======================================================
(PID.TID 0000.0001) // Begin MONITOR dynamic field statistics
(PID.TID 0000.0001) // =======================================================
(PID.TID 0000.0001) %MON time_tsnumber                =                    10
(PID.TID 0000.0001) %MON time_secondsf                =   5.7600000000000E+04
(PID.TID 0000.0001) %MON dynstat_eta_max              =   1.5079827478257E-01
(PID.TID 0000.0001) %MON dynstat_eta_min              =  -2.2244220403875E-01
(PID.TID 0000.0001) %MON dynstat_eta_mean             =  -1.1029935733303E-16
(PID.TID 0000.0001) %MON dynstat_eta_sd               =   7.4951500511740E-02
(PID.TID 0000.0001) %MON dynstat_eta_del2             =   4.5701157939011E-03
(PID.TID 0000.0001) %MON dynstat_uvel_max             =   6.9312739756374E-02
(PID.TID 0000.0001) %MON dynstat_uvel_min             =  -1.9309825865272E-01
(PID.TID 0000.0001) %MON dynstat_uvel_mean            =   2.2122003135963E-04
(PID.TID 0000.0001) %MON dynstat_uvel_sd              =   9.1979681864155E-03
(PID.TID 0000.0001) %MON dynstat_uvel_del2            =   3.4437975318100E-03
(PID.TID 0000.0001) %MON dynstat_vvel_max             =   6.9103652987518E-02
(PID.TID 0000.0001) %MON dynstat_vvel_min             =  -1.2589535369594E-01
(PID.TID 0000.0001) %MON dynstat_vvel_mean            =   4.1695259308669E-04
(PID.TID 0000.0001) %MON dynstat_vvel_sd              =   7.3065106392432E-03
(PID.TID 0000.0001) %MON dynstat_vvel_del2            =   2.2032984683394E-03
(PID.TID 0000.0001) %MON dynstat_wvel_max             =   1.4996645240183E-04
(PID.TID 0000.0001) %MON dynstat_wvel_min             =  -1.6355542430185E-04
(PID.TID 0000.0001) %MON dynstat_wvel_mean            =  -1.6882180788501E-22
(PID.TID 0000.0001) %MON dynstat_wvel_sd              =   3.4346386344394E-05
(PID.TID 0000.0001) %MON dynstat_wvel_del2            =   7.2741463425133E-06
(PID.TID 0000.0001) %MON dynstat_theta_max            =   2.6102382447169E+01
(PID.TID 0000.0001) %MON dynstat_theta_min            =   1.8064483545172E+00
(PID.TID 0000.0001) %MON dynstat_theta_mean           =   5.4785586559129E+00
(PID.TID 0000.0001) %MON dynstat_theta_sd             =   4.5928899538596E+00
(PID.TID 0000.0001) %MON dynstat_theta_del2           =   5.0727227171847E-02
(PID.TID 0000.0001) %MON dynstat_salt_max             =   3.7402888982494E+01
(PID.TID 0000.0001) %MON dynstat_salt_min             =   3.4726792833303E+01
(PID.TID 0000.0001) %MON dynstat_salt_mean            =   3.5157565741806E+01
(PID.TID 0000.0001) %MON dynstat_salt_sd              =   4.1379583822785E-01
(PID.TID 0000.0001) %MON dynstat_salt_del2            =   1.2634071969630E-02
(PID.TID 0000.0001) %MON extforcing_qnet_max          =   4.3620079040527E+01
(PID.TID 0000.0001) %MON extforcing_qnet_min          =  -1.6585078811646E+02
(PID.TID 0000.0001) %MON extforcing_qnet_mean         =  -7.7511853773026E+01
(PID.TID 0000.0001) %MON extforcing_qnet_sd           =   5.1823890423082E+01
(PID.TID 0000.0001) %MON extforcing_qnet_del2         =   8.0811202937159E+00
(PID.TID 0000.0001) %MON extforcing_qsw_max           =  -1.4178676986694E+02
(PID.TID 0000.0001) %MON extforcing_qsw_min           =  -3.1691908264160E+02
(PID.TID 0000.0001) %MON extforcing_qsw_mean          =  -2.4874319379438E+02
(PID.TID 0000.0001) %MON extforcing_qsw_sd            =   4.2339446866167E+01
(PID.TID 0000.0001) %MON extforcing_qsw_del2          =   5.9116569951250E+00
(PID.TID 0000.0001) %MON extforcing_empmr_max         =   6.7263162730669E-05
(PID.TID 0000.0001) %MON extforcing_empmr_min         =   1.3450765657685E-05
(PID.TID 0000.0001) %MON extforcing_empmr_mean        =   4.0246686466085E-05
(PID.TID 0000.0001) %MON extforcing_empmr_sd          =   1.1824252951252E-05
(PID.TID 0000.0001) %MON extforcing_empmr_del2        =   2.2694266614559E-06
(PID.TID 0000.0001) %MON advcfl_uvel_max              =   3.2691718215833E-03
(PID.TID 0000.0001) %MON advcfl_vvel_max              =   2.0382873420332E-03
(PID.TID 0000.0001) %MON advcfl_wvel_max              =   4.8983239438161E-03
(PID.TID 0000.0001) %MON advcfl_W_hf_max              =   5.6820074789610E-03
(PID.TID 0000.0001) %MON pe_b_mean                    =   6.7716229974076E-06
(PID.TID 0000.0001) %MON ke_max                       =   1.8379895820796E-02
(PID.TID 0000.0001) %MON ke_mean                      =   6.1642073337847E-05
(PID.TID 0000.0001) %MON ke_vol                       =   3.6027486600263E+16
(PID.TID 0000.0001) %MON vort_r_min                   =  -3.7984852265656E-07
(PID.TID 0000.0001) %MON vort_r_max                   =   8.2427332578360E-07
(PID.TID 0000.0001) %MON vort_a_mean                  =   6.1944475191297E-05
(PID.TID 0000.0001) %MON vort_a_sd                    =   1.9197896110850E-05
(PID.TID 0000.0001) %MON vort_p_mean                  =   7.7881882182936E-05
(PID.TID 0000.0001) %MON vort_p_sd                    =   5.6366822445925E-05
(PID.TID 0000.0001) %MON surfExpan_theta_mean         =  -3.8420032622548E-06
(PID.TID 0000.0001) %MON surfExpan_salt_mean          =   1.3262420762420E-07
(PID.TID 0000.0001) // =======================================================
(PID.TID 0000.0001) // End MONITOR dynamic field statistics
(PID.TID 0000.0001) // =======================================================
(PID.TID 0000.0001) // =======================================================
(PID.TID 0000.0001) // Begin MONITOR ptracer field statistics
(PID.TID 0000.0001) // =======================================================
(PID.TID 0000.0001) %MON trcstat_ptracer01_max        =   3.7400648213706E+01
(PID.TID 0000.0001) %MON trcstat_ptracer01_min        =   3.4726787601758E+01
(PID.TID 0000.0001) %MON trcstat_ptracer01_mean       =   3.5157556272193E+01
(PID.TID 0000.0001) %MON trcstat_ptracer01_sd         =   4.1376806219770E-01
(PID.TID 0000.0001) %MON trcstat_ptracer01_del2       =   1.2634351548964E-02
(PID.TID 0000.0001) // =======================================================
(PID.TID 0000.0001) // End MONITOR ptracers field statistics
(PID.TID 0000.0001) // =======================================================
time,SST,SSS,fu,fv,Q,E-P,i0,i1,a,b =   5.7600E+04  0.0000E+00  0.0000E+00 -0.0000E+00 -0.0000E+00  0.0000E+00  0.0000E+00     1     2  8.3333E-01  1.6667E-01
time,fu0,fu1,fu =   5.7600E+04 -0.0000E+00 -0.0000E+00 -0.0000E+00  8.333333333333334E-01  1.666666666666666E-01
 cg2d: Sum(rhs),rhsMax =   2.22044604925031E-14  5.52350499797574E-01
(PID.TID 0000.0001)                    cg2d_init_res =    1.38251564994654E-01
(PID.TID 0000.0001)                       cg2d_iters =    45
(PID.TID 0000.0001)                         cg2d_res =    7.00786402924375E-14
(PID.TID 0000.0001) // =======================================================
(PID.TID 0000.0001) // Begin MONITOR dynamic field statistics
(PID.TID 0000.0001) // =======================================================
(PID.TID 0000.0001) %MON time_tsnumber                =                    11
(PID.TID 0000.0001) %MON time_secondsf                =   6.1200000000000E+04
(PID.TID 0000.0001) %MON dynstat_eta_max              =   1.4688756796063E-01
(PID.TID 0000.0001) %MON dynstat_eta_min              =  -2.1252876945707E-01
(PID.TID 0000.0001) %MON dynstat_eta_mean             =  -1.1029935733303E-16
(PID.TID 0000.0001) %MON dynstat_eta_sd               =   7.1860584952877E-02
(PID.TID 0000.0001) %MON dynstat_eta_del2             =   4.5428645170262E-03
(PID.TID 0000.0001) %MON dynstat_uvel_max             =   4.8770692642793E-02
(PID.TID 0000.0001) %MON dynstat_uvel_min             =  -2.0394285719048E-01
(PID.TID 0000.0001) %MON dynstat_uvel_mean            =   6.2684203427010E-05
(PID.TID 0000.0001) %MON dynstat_uvel_sd              =   9.5024203273518E-03
(PID.TID 0000.0001) %MON dynstat_uvel_del2            =   3.5610988072587E-03
(PID.TID 0000.0001) %MON dynstat_vvel_max             =   7.4180566519380E-02
(PID.TID 0000.0001) %MON dynstat_vvel_min             =  -1.3202683960038E-01
(PID.TID 0000.0001) %MON dynstat_vvel_mean            =   4.2419257031861E-04
(PID.TID 0000.0001) %MON dynstat_vvel_sd              =   7.2714644774551E-03
(PID.TID 0000.0001) %MON dynstat_vvel_del2            =   2.1337269522978E-03
(PID.TID 0000.0001) %MON dynstat_wvel_max             =   1.5173763939718E-04
(PID.TID 0000.0001) %MON dynstat_wvel_min             =  -1.5554838396653E-04
(PID.TID 0000.0001) %MON dynstat_wvel_mean            =   3.9391755173170E-22
(PID.TID 0000.0001) %MON dynstat_wvel_sd              =   3.3380772998638E-05
(PID.TID 0000.0001) %MON dynstat_wvel_del2            =   6.8695178346677E-06
(PID.TID 0000.0001) %MON dynstat_theta_max            =   2.6109264847998E+01
(PID.TID 0000.0001) %MON dynstat_theta_min            =   1.8064498027124E+00
(PID.TID 0000.0001) %MON dynstat_theta_mean           =   5.4785790817485E+00
(PID.TID 0000.0001) %MON dynstat_theta_sd             =   4.5929597778637E+00
(PID.TID 0000.0001) %MON dynstat_theta_del2           =   5.0751016174438E-02
(PID.TID 0000.0001) %MON dynstat_salt_max             =   3.7403258202972E+01
(PID.TID 0000.0001) %MON dynstat_salt_min             =   3.4726793315418E+01
(PID.TID 0000.0001) %MON dynstat_salt_mean            =   3.5157566796953E+01
(PID.TID 0000.0001) %MON dynstat_salt_sd              =   4.1379873462365E-01
(PID.TID 0000.0001) %MON dynstat_salt_del2            =   1.2636520678903E-02
(PID.TID 0000.0001) %MON extforcing_qnet_max          =   4.6438039143880E+01
(PID.TID 0000.0001) %MON extforcing_qnet_min          =  -1.6450794219971E+02
(PID.TID 0000.0001) %MON extforcing_qnet_mean         =  -7.6543656525311E+01
(PID.TID 0000.0001) %MON extforcing_qnet_sd           =   5.1937624405908E+01
(PID.TID 0000.0001) %MON extforcing_qnet_del2         =   8.0963423248191E+00
(PID.TID 0000.0001) %MON extforcing_qsw_max           =  -1.3937092844645E+02
(PID.TID 0000.0001) %MON extforcing_qsw_min           =  -3.1751391601563E+02
(PID.TID 0000.0001) %MON extforcing_qsw_mean          =  -2.4902279348619E+02
(PID.TID 0000.0001) %MON extforcing_qsw_sd            =   4.2575600204769E+01
(PID.TID 0000.0001) %MON extforcing_qsw_del2          =   5.9252104109340E+00
(PID.TID 0000.0001) %MON extforcing_empmr_max         =   6.7735917180064E-05
(PID.TID 0000.0001) %MON extforcing_empmr_min         =   1.3600478075867E-05
(PID.TID 0000.0001) %MON extforcing_empmr_mean        =   4.0636046014191E-05
(PID.TID 0000.0001) %MON extforcing_empmr_sd          =   1.1843522017782E-05
(PID.TID 0000.0001) %MON extforcing_empmr_del2        =   2.2805237595540E-06
(PID.TID 0000.0001) %MON advcfl_uvel_max              =   3.4527719027202E-03
(PID.TID 0000.0001) %MON advcfl_vvel_max              =   2.1375581232016E-03
(PID.TID 0000.0001) %MON advcfl_wvel_max              =   4.5115885764909E-03
(PID.TID 0000.0001) %MON advcfl_W_hf_max              =   5.6394857206136E-03
(PID.TID 0000.0001) %MON pe_b_mean                    =   6.2246308945598E-06
(PID.TID 0000.0001) %MON ke_max                       =   1.9674681899402E-02
(PID.TID 0000.0001) %MON ke_mean                      =   6.3963637728298E-05
(PID.TID 0000.0001) %MON ke_vol                       =   3.6027486600263E+16
(PID.TID 0000.0001) %MON vort_r_min                   =  -3.8478878781337E-07
(PID.TID 0000.0001) %MON vort_r_max                   =   8.4300377429865E-07
(PID.TID 0000.0001) %MON vort_a_mean                  =   6.1944475191297E-05
(PID.TID 0000.0001) %MON vort_a_sd                    =   1.9197759819565E-05
(PID.TID 0000.0001) %MON vort_p_mean                  =   7.7881882182936E-05
(PID.TID 0000.0001) %MON vort_p_sd                    =   5.6366230730458E-05
(PID.TID 0000.0001) %MON surfExpan_theta_mean         =  -3.2818305015947E-06
(PID.TID 0000.0001) %MON surfExpan_salt_mean          =   2.6862624258245E-07
(PID.TID 0000.0001) // =======================================================
(PID.TID 0000.0001) // End MONITOR dynamic field statistics
(PID.TID 0000.0001) // =======================================================
(PID.TID 0000.0001) // =======================================================
(PID.TID 0000.0001) // Begin MONITOR ptracer field statistics
(PID.TID 0000.0001) // =======================================================
(PID.TID 0000.0001) %MON trcstat_ptracer01_max        =   3.7400648213706E+01
(PID.TID 0000.0001) %MON trcstat_ptracer01_min        =   3.4726787601758E+01
(PID.TID 0000.0001) %MON trcstat_ptracer01_mean       =   3.5157556272193E+01
(PID.TID 0000.0001) %MON trcstat_ptracer01_sd         =   4.1376806219770E-01
(PID.TID 0000.0001) %MON trcstat_ptracer01_del2       =   1.2634351548964E-02
(PID.TID 0000.0001) // =======================================================
(PID.TID 0000.0001) // End MONITOR ptracers field statistics
(PID.TID 0000.0001) // =======================================================
time,SST,SSS,fu,fv,Q,E-P,i0,i1,a,b =   6.1200E+04  0.0000E+00  0.0000E+00 -0.0000E+00 -0.0000E+00  0.0000E+00  0.0000E+00     1     2  9.1667E-01  8.3333E-02
time,fu0,fu1,fu =   6.1200E+04 -0.0000E+00 -0.0000E+00 -0.0000E+00  9.166666666666666E-01  8.333333333333337E-02
 cg2d: Sum(rhs),rhsMax =   2.48689957516035E-14  5.45399159311156E-01
(PID.TID 0000.0001)                    cg2d_init_res =    1.16547718785498E-01
(PID.TID 0000.0001)                       cg2d_iters =    45
(PID.TID 0000.0001)                         cg2d_res =    6.97482364113361E-14
(PID.TID 0000.0001) // =======================================================
(PID.TID 0000.0001) // Begin MONITOR dynamic field statistics
(PID.TID 0000.0001) // =======================================================
(PID.TID 0000.0001) %MON time_tsnumber                =                    12
(PID.TID 0000.0001) %MON time_secondsf                =   6.4800000000000E+04
(PID.TID 0000.0001) %MON dynstat_eta_max              =   1.4574910016165E-01
(PID.TID 0000.0001) %MON dynstat_eta_min              =  -2.0705269314336E-01
(PID.TID 0000.0001) %MON dynstat_eta_mean             =  -1.1581432519968E-16
(PID.TID 0000.0001) %MON dynstat_eta_sd               =   7.1001085987852E-02
(PID.TID 0000.0001) %MON dynstat_eta_del2             =   4.5383132423169E-03
(PID.TID 0000.0001) %MON dynstat_uvel_max             =   4.7641326351651E-02
(PID.TID 0000.0001) %MON dynstat_uvel_min             =  -2.1202973344763E-01
(PID.TID 0000.0001) %MON dynstat_uvel_mean            =  -5.1362494358351E-05
(PID.TID 0000.0001) %MON dynstat_uvel_sd              =   9.6913755832690E-03
(PID.TID 0000.0001) %MON dynstat_uvel_del2            =   3.5846061246138E-03
(PID.TID 0000.0001) %MON dynstat_vvel_max             =   7.6947341275453E-02
(PID.TID 0000.0001) %MON dynstat_vvel_min             =  -1.3674204630434E-01
(PID.TID 0000.0001) %MON dynstat_vvel_mean            =   3.1230532273219E-04
(PID.TID 0000.0001) %MON dynstat_vvel_sd              =   7.2007018062777E-03
(PID.TID 0000.0001) %MON dynstat_vvel_del2            =   2.1456837775930E-03
(PID.TID 0000.0001) %MON dynstat_wvel_max             =   1.5093899683125E-04
(PID.TID 0000.0001) %MON dynstat_wvel_min             =  -1.5154286378296E-04
(PID.TID 0000.0001) %MON dynstat_wvel_mean            =   4.5019148769337E-22
(PID.TID 0000.0001) %MON dynstat_wvel_sd              =   3.2687054247927E-05
(PID.TID 0000.0001) %MON dynstat_wvel_del2            =   6.7360303016156E-06
(PID.TID 0000.0001) %MON dynstat_theta_max            =   2.6116070693396E+01
(PID.TID 0000.0001) %MON dynstat_theta_min            =   1.8064511927487E+00
(PID.TID 0000.0001) %MON dynstat_theta_mean           =   5.4785982840138E+00
(PID.TID 0000.0001) %MON dynstat_theta_sd             =   4.5930251269918E+00
(PID.TID 0000.0001) %MON dynstat_theta_del2           =   5.0787592830561E-02
(PID.TID 0000.0001) %MON dynstat_salt_max             =   3.7403638701650E+01
(PID.TID 0000.0001) %MON dynstat_salt_min             =   3.4726794586595E+01
(PID.TID 0000.0001) %MON dynstat_salt_mean            =   3.5157567815961E+01
(PID.TID 0000.0001) %MON dynstat_salt_sd              =   4.1380146397748E-01
(PID.TID 0000.0001) %MON dynstat_salt_del2            =   1.2640214886655E-02
(PID.TID 0000.0001) %MON extforcing_qnet_max          =   4.9255999247233E+01
(PID.TID 0000.0001) %MON extforcing_qnet_min          =  -1.6316509628296E+02
(PID.TID 0000.0001) %MON extforcing_qnet_mean         =  -7.5575459277595E+01
(PID.TID 0000.0001) %MON extforcing_qnet_sd           =   5.2081368799327E+01
(PID.TID 0000.0001) %MON extforcing_qnet_del2         =   8.1172915977014E+00
(PID.TID 0000.0001) %MON extforcing_qsw_max           =  -1.3695508702596E+02
(PID.TID 0000.0001) %MON extforcing_qsw_min           =  -3.1810874938965E+02
(PID.TID 0000.0001) %MON extforcing_qsw_mean          =  -2.4930239317800E+02
(PID.TID 0000.0001) %MON extforcing_qsw_sd            =   4.2832861101004E+01
(PID.TID 0000.0001) %MON extforcing_qsw_del2          =   5.9467413202295E+00
(PID.TID 0000.0001) %MON extforcing_empmr_max         =   6.8208671629459E-05
(PID.TID 0000.0001) %MON extforcing_empmr_min         =   1.3750190494048E-05
(PID.TID 0000.0001) %MON extforcing_empmr_mean        =   4.1025405562298E-05
(PID.TID 0000.0001) %MON extforcing_empmr_sd          =   1.1873178769737E-05
(PID.TID 0000.0001) %MON extforcing_empmr_del2        =   2.2928655708299E-06
(PID.TID 0000.0001) %MON advcfl_uvel_max              =   3.5896834842587E-03
(PID.TID 0000.0001) %MON advcfl_vvel_max              =   2.2138988765146E-03
(PID.TID 0000.0001) %MON advcfl_wvel_max              =   4.3650394523574E-03
(PID.TID 0000.0001) %MON advcfl_W_hf_max              =   5.4562993154467E-03
(PID.TID 0000.0001) %MON pe_b_mean                    =   6.0766201677524E-06
(PID.TID 0000.0001) %MON ke_max                       =   2.1664846058233E-02
(PID.TID 0000.0001) %MON ke_mean                      =   6.5110062616312E-05
(PID.TID 0000.0001) %MON ke_vol                       =   3.6027486600263E+16
(PID.TID 0000.0001) %MON vort_r_min                   =  -3.9278082140607E-07
(PID.TID 0000.0001) %MON vort_r_max                   =   8.4703045944672E-07
(PID.TID 0000.0001) %MON vort_a_mean                  =   6.1944475191297E-05
(PID.TID 0000.0001) %MON vort_a_sd                    =   1.9197661417010E-05
(PID.TID 0000.0001) %MON vort_p_mean                  =   7.7881882182936E-05
(PID.TID 0000.0001) %MON vort_p_sd                    =   5.6365658198882E-05
(PID.TID 0000.0001) %MON surfExpan_theta_mean         =  -2.0611442584829E-06
(PID.TID 0000.0001) %MON surfExpan_salt_mean          =   2.6785639504666E-07
(PID.TID 0000.0001) // =======================================================
(PID.TID 0000.0001) // End MONITOR dynamic field statistics
(PID.TID 0000.0001) // =======================================================
(PID.TID 0000.0001) // =======================================================
(PID.TID 0000.0001) // Begin MONITOR ptracer field statistics
(PID.TID 0000.0001) // =======================================================
(PID.TID 0000.0001) %MON trcstat_ptracer01_max        =   3.7400743025296E+01
(PID.TID 0000.0001) %MON trcstat_ptracer01_min        =   3.4726788505205E+01
(PID.TID 0000.0001) %MON trcstat_ptracer01_mean       =   3.5157554822041E+01
(PID.TID 0000.0001) %MON trcstat_ptracer01_sd         =   4.1376281981303E-01
(PID.TID 0000.0001) %MON trcstat_ptracer01_del2       =   1.2642589328846E-02
(PID.TID 0000.0001) // =======================================================
(PID.TID 0000.0001) // End MONITOR ptracers field statistics
(PID.TID 0000.0001) // =======================================================
 Computing Diagnostic #    211  TRAC01       Counter:       1   Parms: SM P    MR      
S/R EXTERNAL_FIELDS_LOAD: Reading new data:    2    3        12  6.480000000000E+04
(PID.TID 0000.0001)  MDS_READ_FIELD: opening global file: kf_tx
(PID.TID 0000.0001)  MDS_READ_FIELD: opening global file: kf_tx
(PID.TID 0000.0001)  MDS_READ_FIELD: opening global file: kf_ty
(PID.TID 0000.0001)  MDS_READ_FIELD: opening global file: kf_ty
(PID.TID 0000.0001)  MDS_READ_FIELD: opening global file: kf_qnet
(PID.TID 0000.0001)  MDS_READ_FIELD: opening global file: kf_qnet
(PID.TID 0000.0001)  MDS_READ_FIELD: opening global file: kf_empmr
(PID.TID 0000.0001)  MDS_READ_FIELD: opening global file: kf_empmr
(PID.TID 0000.0001)  MDS_READ_FIELD: opening global file: kf_sst
(PID.TID 0000.0001)  MDS_READ_FIELD: opening global file: kf_sst
(PID.TID 0000.0001)  MDS_READ_FIELD: opening global file: kf_sss
(PID.TID 0000.0001)  MDS_READ_FIELD: opening global file: kf_sss
(PID.TID 0000.0001)  MDS_READ_FIELD: opening global file: kf_sw
(PID.TID 0000.0001)  MDS_READ_FIELD: opening global file: kf_sw
time,SST,SSS,fu,fv,Q,E-P,i0,i1,a,b =   6.4800E+04  0.0000E+00  0.0000E+00 -0.0000E+00 -0.0000E+00  0.0000E+00  0.0000E+00     2     3  0.0000E+00  1.0000E+00
time,fu0,fu1,fu =   6.4800E+04 -0.0000E+00 -0.0000E+00 -0.0000E+00  0.000000000000000E+00  1.000000000000000E+00
 cg2d: Sum(rhs),rhsMax =   1.95399252334028E-14  5.42214536711349E-01
(PID.TID 0000.0001)                    cg2d_init_res =    9.01706461737581E-02
(PID.TID 0000.0001)                       cg2d_iters =    45
(PID.TID 0000.0001)                         cg2d_res =    8.89461454658339E-14
(PID.TID 0000.0001) // =======================================================
(PID.TID 0000.0001) // Begin MONITOR dynamic field statistics
(PID.TID 0000.0001) // =======================================================
(PID.TID 0000.0001) %MON time_tsnumber                =                    13
(PID.TID 0000.0001) %MON time_secondsf                =   6.8400000000000E+04
(PID.TID 0000.0001) %MON dynstat_eta_max              =   1.4672496422034E-01
(PID.TID 0000.0001) %MON dynstat_eta_min              =  -2.0580094700499E-01
(PID.TID 0000.0001) %MON dynstat_eta_mean             =  -1.0478438946638E-16
(PID.TID 0000.0001) %MON dynstat_eta_sd               =   7.1734455961322E-02
(PID.TID 0000.0001) %MON dynstat_eta_del2             =   4.5541071027615E-03
(PID.TID 0000.0001) %MON dynstat_uvel_max             =   4.5615496419852E-02
(PID.TID 0000.0001) %MON dynstat_uvel_min             =  -2.1646107403449E-01
(PID.TID 0000.0001) %MON dynstat_uvel_mean            =  -1.2067422306344E-04
(PID.TID 0000.0001) %MON dynstat_uvel_sd              =   9.7716212745686E-03
(PID.TID 0000.0001) %MON dynstat_uvel_del2            =   3.5181343563476E-03
(PID.TID 0000.0001) %MON dynstat_vvel_max             =   7.7542200134535E-02
(PID.TID 0000.0001) %MON dynstat_vvel_min             =  -1.3989981823649E-01
(PID.TID 0000.0001) %MON dynstat_vvel_mean            =   1.4387365397250E-04
(PID.TID 0000.0001) %MON dynstat_vvel_sd              =   7.0994129149590E-03
(PID.TID 0000.0001) %MON dynstat_vvel_del2            =   2.2282231744627E-03
(PID.TID 0000.0001) %MON dynstat_wvel_max             =   1.4754510440419E-04
(PID.TID 0000.0001) %MON dynstat_wvel_min             =  -1.5895462737437E-04
(PID.TID 0000.0001) %MON dynstat_wvel_mean            =  -3.3764361577003E-22
(PID.TID 0000.0001) %MON dynstat_wvel_sd              =   3.2222015993556E-05
(PID.TID 0000.0001) %MON dynstat_wvel_del2            =   6.8175636446369E-06
(PID.TID 0000.0001) %MON dynstat_theta_max            =   2.6122755729441E+01
(PID.TID 0000.0001) %MON dynstat_theta_min            =   1.8064525869266E+00
(PID.TID 0000.0001) %MON dynstat_theta_mean           =   5.4786158442883E+00
(PID.TID 0000.0001) %MON dynstat_theta_sd             =   4.5930843894078E+00
(PID.TID 0000.0001) %MON dynstat_theta_del2           =   5.0837022970989E-02
(PID.TID 0000.0001) %MON dynstat_salt_max             =   3.7404026551938E+01
(PID.TID 0000.0001) %MON dynstat_salt_min             =   3.4726796840416E+01
(PID.TID 0000.0001) %MON dynstat_salt_mean            =   3.5157568919166E+01
(PID.TID 0000.0001) %MON dynstat_salt_sd              =   4.1380436199567E-01
(PID.TID 0000.0001) %MON dynstat_salt_del2            =   1.2644148449074E-02
(PID.TID 0000.0001) %MON extforcing_qnet_max          =   5.2073959350586E+01
(PID.TID 0000.0001) %MON extforcing_qnet_min          =  -1.6258977508545E+02
(PID.TID 0000.0001) %MON extforcing_qnet_mean         =  -7.4607262029879E+01
(PID.TID 0000.0001) %MON extforcing_qnet_sd           =   5.2254875943117E+01
(PID.TID 0000.0001) %MON extforcing_qnet_del2         =   8.1457465787239E+00
(PID.TID 0000.0001) %MON extforcing_qsw_max           =  -1.3453924560547E+02
(PID.TID 0000.0001) %MON extforcing_qsw_min           =  -3.1870358276367E+02
(PID.TID 0000.0001) %MON extforcing_qsw_mean          =  -2.4958199286982E+02
(PID.TID 0000.0001) %MON extforcing_qsw_sd            =   4.3110851683050E+01
(PID.TID 0000.0001) %MON extforcing_qsw_del2          =   5.9705705689679E+00
(PID.TID 0000.0001) %MON extforcing_empmr_max         =   6.8681426078854E-05
(PID.TID 0000.0001) %MON extforcing_empmr_min         =   1.3899902912229E-05
(PID.TID 0000.0001) %MON extforcing_empmr_mean        =   4.1414765110404E-05
(PID.TID 0000.0001) %MON extforcing_empmr_sd          =   1.1913145629620E-05
(PID.TID 0000.0001) %MON extforcing_empmr_del2        =   2.3063705960589E-06
(PID.TID 0000.0001) %MON advcfl_uvel_max              =   3.6647065004138E-03
(PID.TID 0000.0001) %MON advcfl_vvel_max              =   2.2650242466682E-03
(PID.TID 0000.0001) %MON advcfl_wvel_max              =   4.1747556214639E-03
(PID.TID 0000.0001) %MON advcfl_W_hf_max              =   5.2184445268299E-03
(PID.TID 0000.0001) %MON pe_b_mean                    =   6.2027992489500E-06
(PID.TID 0000.0001) %MON ke_max                       =   2.3357227601260E-02
(PID.TID 0000.0001) %MON ke_mean                      =   6.5148697983559E-05
(PID.TID 0000.0001) %MON ke_vol                       =   3.6027486600263E+16
(PID.TID 0000.0001) %MON vort_r_min                   =  -3.9459257027554E-07
(PID.TID 0000.0001) %MON vort_r_max                   =   8.4006465169209E-07
(PID.TID 0000.0001) %MON vort_a_mean                  =   6.1944475191297E-05
(PID.TID 0000.0001) %MON vort_a_sd                    =   1.9197600686177E-05
(PID.TID 0000.0001) %MON vort_p_mean                  =   7.7881882182936E-05
(PID.TID 0000.0001) %MON vort_p_sd                    =   5.6365229352558E-05
(PID.TID 0000.0001) %MON surfExpan_theta_mean         =  -6.2554047291619E-07
(PID.TID 0000.0001) %MON surfExpan_salt_mean          =   1.7936995940000E-07
(PID.TID 0000.0001) // =======================================================
(PID.TID 0000.0001) // End MONITOR dynamic field statistics
(PID.TID 0000.0001) // =======================================================
(PID.TID 0000.0001) // =======================================================
(PID.TID 0000.0001) // Begin MONITOR ptracer field statistics
(PID.TID 0000.0001) // =======================================================
(PID.TID 0000.0001) %MON trcstat_ptracer01_max        =   3.7400743025296E+01
(PID.TID 0000.0001) %MON trcstat_ptracer01_min        =   3.4726788505205E+01
(PID.TID 0000.0001) %MON trcstat_ptracer01_mean       =   3.5157554822041E+01
(PID.TID 0000.0001) %MON trcstat_ptracer01_sd         =   4.1376281981303E-01
(PID.TID 0000.0001) %MON trcstat_ptracer01_del2       =   1.2642589328846E-02
(PID.TID 0000.0001) // =======================================================
(PID.TID 0000.0001) // End MONITOR ptracers field statistics
(PID.TID 0000.0001) // =======================================================
time,SST,SSS,fu,fv,Q,E-P,i0,i1,a,b =   6.8400E+04  0.0000E+00  0.0000E+00 -0.0000E+00 -0.0000E+00  0.0000E+00  0.0000E+00     2     3  8.3333E-02  9.1667E-01
time,fu0,fu1,fu =   6.8400E+04 -0.0000E+00 -0.0000E+00 -0.0000E+00  8.333333333333333E-02  9.166666666666666E-01
 cg2d: Sum(rhs),rhsMax =   1.95399252334028E-14  5.42051141138392E-01
(PID.TID 0000.0001)                    cg2d_init_res =    7.96234914155970E-02
(PID.TID 0000.0001)                       cg2d_iters =    45
(PID.TID 0000.0001)                         cg2d_res =    9.03740785642820E-14
(PID.TID 0000.0001) // =======================================================
(PID.TID 0000.0001) // Begin MONITOR dynamic field statistics
(PID.TID 0000.0001) // =======================================================
(PID.TID 0000.0001) %MON time_tsnumber                =                    14
(PID.TID 0000.0001) %MON time_secondsf                =   7.2000000000000E+04
(PID.TID 0000.0001) %MON dynstat_eta_max              =   1.4888929979848E-01
(PID.TID 0000.0001) %MON dynstat_eta_min              =  -2.0792396306308E-01
(PID.TID 0000.0001) %MON dynstat_eta_mean             =  -1.0478438946638E-16
(PID.TID 0000.0001) %MON dynstat_eta_sd               =   7.3312964513856E-02
(PID.TID 0000.0001) %MON dynstat_eta_del2             =   4.5753465176782E-03
(PID.TID 0000.0001) %MON dynstat_uvel_max             =   4.3393166979306E-02
(PID.TID 0000.0001) %MON dynstat_uvel_min             =  -2.1661715176553E-01
(PID.TID 0000.0001) %MON dynstat_uvel_mean            =  -1.5280090272505E-04
(PID.TID 0000.0001) %MON dynstat_uvel_sd              =   9.7552393509594E-03
(PID.TID 0000.0001) %MON dynstat_uvel_del2            =   3.3649051378696E-03
(PID.TID 0000.0001) %MON dynstat_vvel_max             =   8.1237663226690E-02
(PID.TID 0000.0001) %MON dynstat_vvel_min             =  -1.4130203986379E-01
(PID.TID 0000.0001) %MON dynstat_vvel_mean            =  -1.7697511119152E-05
(PID.TID 0000.0001) %MON dynstat_vvel_sd              =   6.9662607661044E-03
(PID.TID 0000.0001) %MON dynstat_vvel_del2            =   2.3504205861835E-03
(PID.TID 0000.0001) %MON dynstat_wvel_max             =   1.4159625251515E-04
(PID.TID 0000.0001) %MON dynstat_wvel_min             =  -1.6489035720408E-04
(PID.TID 0000.0001) %MON dynstat_wvel_mean            =   2.2509574384669E-21
(PID.TID 0000.0001) %MON dynstat_wvel_sd              =   3.1778769826845E-05
(PID.TID 0000.0001) %MON dynstat_wvel_del2            =   6.9706658808803E-06
(PID.TID 0000.0001) %MON dynstat_theta_max            =   2.6129237287684E+01
(PID.TID 0000.0001) %MON dynstat_theta_min            =   1.8064540504060E+00
(PID.TID 0000.0001) %MON dynstat_theta_mean           =   5.4786318133521E+00
(PID.TID 0000.0001) %MON dynstat_theta_sd             =   4.5931377795391E+00
(PID.TID 0000.0001) %MON dynstat_theta_del2           =   5.0901027098302E-02
(PID.TID 0000.0001) %MON dynstat_salt_max             =   3.7404418863229E+01
(PID.TID 0000.0001) %MON dynstat_salt_min             =   3.4726800121272E+01
(PID.TID 0000.0001) %MON dynstat_salt_mean            =   3.5157570159798E+01
(PID.TID 0000.0001) %MON dynstat_salt_sd              =   4.1380759443272E-01
(PID.TID 0000.0001) %MON dynstat_salt_del2            =   1.2647588740535E-02
(PID.TID 0000.0001) %MON extforcing_qnet_max          =   5.1977971394857E+01
(PID.TID 0000.0001) %MON extforcing_qnet_min          =  -1.6385988362630E+02
(PID.TID 0000.0001) %MON extforcing_qnet_mean         =  -7.3651586729899E+01
(PID.TID 0000.0001) %MON extforcing_qnet_sd           =   5.1704387965704E+01
(PID.TID 0000.0001) %MON extforcing_qnet_del2         =   8.0395881186174E+00
(PID.TID 0000.0001) %MON extforcing_qsw_max           =  -1.3404340108236E+02
(PID.TID 0000.0001) %MON extforcing_qsw_min           =  -3.1842380015055E+02
(PID.TID 0000.0001) %MON extforcing_qsw_mean          =  -2.5003001626694E+02
(PID.TID 0000.0001) %MON extforcing_qsw_sd            =   4.2766618166345E+01
(PID.TID 0000.0001) %MON extforcing_qsw_del2          =   5.8008702815264E+00
(PID.TID 0000.0001) %MON extforcing_empmr_max         =   6.8503168801470E-05
(PID.TID 0000.0001) %MON extforcing_empmr_min         =   1.3984636391040E-05
(PID.TID 0000.0001) %MON extforcing_empmr_mean        =   4.1836037621644E-05
(PID.TID 0000.0001) %MON extforcing_empmr_sd          =   1.1816049545074E-05
(PID.TID 0000.0001) %MON extforcing_empmr_del2        =   2.2987105901136E-06
(PID.TID 0000.0001) %MON advcfl_uvel_max              =   3.6673489111940E-03
(PID.TID 0000.0001) %MON advcfl_vvel_max              =   2.2877266777727E-03
(PID.TID 0000.0001) %MON advcfl_wvel_max              =   3.9949292287168E-03
(PID.TID 0000.0001) %MON advcfl_W_hf_max              =   4.9936615358960E-03
(PID.TID 0000.0001) %MON pe_b_mean                    =   6.4787865228878E-06
(PID.TID 0000.0001) %MON ke_max                       =   2.4474495489652E-02
(PID.TID 0000.0001) %MON ke_mean                      =   6.4177001337786E-05
(PID.TID 0000.0001) %MON ke_vol                       =   3.6027486600263E+16
(PID.TID 0000.0001) %MON vort_r_min                   =  -4.4813009407372E-07
(PID.TID 0000.0001) %MON vort_r_max                   =   8.2817846431920E-07
(PID.TID 0000.0001) %MON vort_a_mean                  =   6.1944475191297E-05
(PID.TID 0000.0001) %MON vort_a_sd                    =   1.9197570818697E-05
(PID.TID 0000.0001) %MON vort_p_mean                  =   7.7881882182936E-05
(PID.TID 0000.0001) %MON vort_p_sd                    =   5.6365028395025E-05
(PID.TID 0000.0001) %MON surfExpan_theta_mean         =   6.0791094801470E-07
(PID.TID 0000.0001) %MON surfExpan_salt_mean          =   6.4568581664683E-08
(PID.TID 0000.0001) // =======================================================
(PID.TID 0000.0001) // End MONITOR dynamic field statistics
(PID.TID 0000.0001) // =======================================================
(PID.TID 0000.0001) // =======================================================
(PID.TID 0000.0001) // Begin MONITOR ptracer field statistics
(PID.TID 0000.0001) // =======================================================
(PID.TID 0000.0001) %MON trcstat_ptracer01_max        =   3.7400743025296E+01
(PID.TID 0000.0001) %MON trcstat_ptracer01_min        =   3.4726788505205E+01
(PID.TID 0000.0001) %MON trcstat_ptracer01_mean       =   3.5157554822041E+01
(PID.TID 0000.0001) %MON trcstat_ptracer01_sd         =   4.1376281981303E-01
(PID.TID 0000.0001) %MON trcstat_ptracer01_del2       =   1.2642589328846E-02
(PID.TID 0000.0001) // =======================================================
(PID.TID 0000.0001) // End MONITOR ptracers field statistics
(PID.TID 0000.0001) // =======================================================
time,SST,SSS,fu,fv,Q,E-P,i0,i1,a,b =   7.2000E+04  0.0000E+00  0.0000E+00 -0.0000E+00 -0.0000E+00  0.0000E+00  0.0000E+00     2     3  1.6667E-01  8.3333E-01
time,fu0,fu1,fu =   7.2000E+04 -0.0000E+00 -0.0000E+00 -0.0000E+00  1.666666666666667E-01  8.333333333333334E-01
 cg2d: Sum(rhs),rhsMax =   1.95399252334028E-14  5.43973412023947E-01
(PID.TID 0000.0001)                    cg2d_init_res =    8.29744433498481E-02
(PID.TID 0000.0001)                       cg2d_iters =    45
(PID.TID 0000.0001)                         cg2d_res =    6.36253780864364E-14
(PID.TID 0000.0001) // =======================================================
(PID.TID 0000.0001) // Begin MONITOR dynamic field statistics
(PID.TID 0000.0001) // =======================================================
(PID.TID 0000.0001) %MON time_tsnumber                =                    15
(PID.TID 0000.0001) %MON time_secondsf                =   7.5600000000000E+04
(PID.TID 0000.0001) %MON dynstat_eta_max              =   1.5128534492206E-01
(PID.TID 0000.0001) %MON dynstat_eta_min              =  -2.1226326629268E-01
(PID.TID 0000.0001) %MON dynstat_eta_mean             =  -8.8239485866425E-17
(PID.TID 0000.0001) %MON dynstat_eta_sd               =   7.5171411548024E-02
(PID.TID 0000.0001) %MON dynstat_eta_del2             =   4.6045019580387E-03
(PID.TID 0000.0001) %MON dynstat_uvel_max             =   3.9934057289731E-02
(PID.TID 0000.0001) %MON dynstat_uvel_min             =  -2.2006434132684E-01
(PID.TID 0000.0001) %MON dynstat_uvel_mean            =  -1.5545012520810E-04
(PID.TID 0000.0001) %MON dynstat_uvel_sd              =   9.6476575716647E-03
(PID.TID 0000.0001) %MON dynstat_uvel_del2            =   3.1470040806748E-03
(PID.TID 0000.0001) %MON dynstat_vvel_max             =   8.4126295881783E-02
(PID.TID 0000.0001) %MON dynstat_vvel_min             =  -1.4078556487377E-01
(PID.TID 0000.0001) %MON dynstat_vvel_mean            =  -1.2745610380767E-04
(PID.TID 0000.0001) %MON dynstat_vvel_sd              =   6.7985811465630E-03
(PID.TID 0000.0001) %MON dynstat_vvel_del2            =   2.4413396331695E-03
(PID.TID 0000.0001) %MON dynstat_wvel_max             =   1.3319866566166E-04
(PID.TID 0000.0001) %MON dynstat_wvel_min             =  -1.6934624360744E-04
(PID.TID 0000.0001) %MON dynstat_wvel_mean            =  -1.2380265911568E-21
(PID.TID 0000.0001) %MON dynstat_wvel_sd              =   3.1107856295455E-05
(PID.TID 0000.0001) %MON dynstat_wvel_del2            =   6.9704986978894E-06
(PID.TID 0000.0001) %MON dynstat_theta_max            =   2.6135554157852E+01
(PID.TID 0000.0001) %MON dynstat_theta_min            =   1.8064556483988E+00
(PID.TID 0000.0001) %MON dynstat_theta_mean           =   5.4786465899874E+00
(PID.TID 0000.0001) %MON dynstat_theta_sd             =   4.5931867560453E+00
(PID.TID 0000.0001) %MON dynstat_theta_del2           =   5.0974355055626E-02
(PID.TID 0000.0001) %MON dynstat_salt_max             =   3.7404811839615E+01
(PID.TID 0000.0001) %MON dynstat_salt_min             =   3.4726804296106E+01
(PID.TID 0000.0001) %MON dynstat_salt_mean            =   3.5157571528033E+01
(PID.TID 0000.0001) %MON dynstat_salt_sd              =   4.1381115930309E-01
(PID.TID 0000.0001) %MON dynstat_salt_del2            =   1.2650454004858E-02
(PID.TID 0000.0001) %MON extforcing_qnet_max          =   5.1881983439128E+01
(PID.TID 0000.0001) %MON extforcing_qnet_min          =  -1.6512999216715E+02
(PID.TID 0000.0001) %MON extforcing_qnet_mean         =  -7.2695911429919E+01
(PID.TID 0000.0001) %MON extforcing_qnet_sd           =   5.1206831276043E+01
(PID.TID 0000.0001) %MON extforcing_qnet_del2         =   7.9459580138008E+00
(PID.TID 0000.0001) %MON extforcing_qsw_max           =  -1.3354755655924E+02
(PID.TID 0000.0001) %MON extforcing_qsw_min           =  -3.1814401753743E+02
(PID.TID 0000.0001) %MON extforcing_qsw_mean          =  -2.5047803966406E+02
(PID.TID 0000.0001) %MON extforcing_qsw_sd            =   4.2471564939527E+01
(PID.TID 0000.0001) %MON extforcing_qsw_del2          =   5.6487943276592E+00
(PID.TID 0000.0001) %MON extforcing_empmr_max         =   6.8324911524087E-05
(PID.TID 0000.0001) %MON extforcing_empmr_min         =   1.4069369869851E-05
(PID.TID 0000.0001) %MON extforcing_empmr_mean        =   4.2257310132885E-05
(PID.TID 0000.0001) %MON extforcing_empmr_sd          =   1.1736454149462E-05
(PID.TID 0000.0001) %MON extforcing_empmr_del2        =   2.2961946400204E-06
(PID.TID 0000.0001) %MON advcfl_uvel_max              =   3.7085376819738E-03
(PID.TID 0000.0001) %MON advcfl_vvel_max              =   2.2793647771645E-03
(PID.TID 0000.0001) %MON advcfl_wvel_max              =   4.1857505221240E-03
(PID.TID 0000.0001) %MON advcfl_W_hf_max              =   5.2321881526551E-03
(PID.TID 0000.0001) %MON pe_b_mean                    =   6.8114177778579E-06
(PID.TID 0000.0001) %MON ke_max                       =   2.5306973315894E-02
(PID.TID 0000.0001) %MON ke_mean                      =   6.2230641940424E-05
(PID.TID 0000.0001) %MON ke_vol                       =   3.6027486600263E+16
(PID.TID 0000.0001) %MON vort_r_min                   =  -4.8591811922900E-07
(PID.TID 0000.0001) %MON vort_r_max                   =   8.1172194446527E-07
(PID.TID 0000.0001) %MON vort_a_mean                  =   6.1944475191297E-05
(PID.TID 0000.0001) %MON vort_a_sd                    =   1.9197565044670E-05
(PID.TID 0000.0001) %MON vort_p_mean                  =   7.7881882182936E-05
(PID.TID 0000.0001) %MON vort_p_sd                    =   5.6365105419229E-05
(PID.TID 0000.0001) %MON surfExpan_theta_mean         =   1.3564036456767E-06
(PID.TID 0000.0001) %MON surfExpan_salt_mean          =  -2.9084297773716E-08
(PID.TID 0000.0001) // =======================================================
(PID.TID 0000.0001) // End MONITOR dynamic field statistics
(PID.TID 0000.0001) // =======================================================
(PID.TID 0000.0001) // =======================================================
(PID.TID 0000.0001) // Begin MONITOR ptracer field statistics
(PID.TID 0000.0001) // =======================================================
(PID.TID 0000.0001) %MON trcstat_ptracer01_max        =   3.7400905180345E+01
(PID.TID 0000.0001) %MON trcstat_ptracer01_min        =   3.4726800694457E+01
(PID.TID 0000.0001) %MON trcstat_ptracer01_mean       =   3.5157554235515E+01
(PID.TID 0000.0001) %MON trcstat_ptracer01_sd         =   4.1375898181864E-01
(PID.TID 0000.0001) %MON trcstat_ptracer01_del2       =   1.2653731701262E-02
(PID.TID 0000.0001) // =======================================================
(PID.TID 0000.0001) // End MONITOR ptracers field statistics
(PID.TID 0000.0001) // =======================================================
 Computing Diagnostic #    211  TRAC01       Counter:       1   Parms: SM P    MR      
time,SST,SSS,fu,fv,Q,E-P,i0,i1,a,b =   7.5600E+04  0.0000E+00  0.0000E+00 -0.0000E+00 -0.0000E+00  0.0000E+00  0.0000E+00     2     3  2.5000E-01  7.5000E-01
time,fu0,fu1,fu =   7.5600E+04 -0.0000E+00 -0.0000E+00 -0.0000E+00  2.500000000000000E-01  7.500000000000000E-01
 cg2d: Sum(rhs),rhsMax =   1.95399252334028E-14  5.47053030805622E-01
(PID.TID 0000.0001)                    cg2d_init_res =    8.44019687269290E-02
(PID.TID 0000.0001)                       cg2d_iters =    44
(PID.TID 0000.0001)                         cg2d_res =    7.60292211273808E-14
(PID.TID 0000.0001) // =======================================================
(PID.TID 0000.0001) // Begin MONITOR dynamic field statistics
(PID.TID 0000.0001) // =======================================================
(PID.TID 0000.0001) %MON time_tsnumber                =                    16
(PID.TID 0000.0001) %MON time_secondsf                =   7.9200000000000E+04
(PID.TID 0000.0001) %MON dynstat_eta_max              =   1.5317313660965E-01
(PID.TID 0000.0001) %MON dynstat_eta_min              =  -2.1739450648893E-01
(PID.TID 0000.0001) %MON dynstat_eta_mean             =  -1.1029935733303E-16
(PID.TID 0000.0001) %MON dynstat_eta_sd               =   7.6894991235417E-02
(PID.TID 0000.0001) %MON dynstat_eta_del2             =   4.6417606006417E-03
(PID.TID 0000.0001) %MON dynstat_uvel_max             =   3.5757859394618E-02
(PID.TID 0000.0001) %MON dynstat_uvel_min             =  -2.2223620015194E-01
(PID.TID 0000.0001) %MON dynstat_uvel_mean            =  -1.3667616450200E-04
(PID.TID 0000.0001) %MON dynstat_uvel_sd              =   9.4603845280311E-03
(PID.TID 0000.0001) %MON dynstat_uvel_del2            =   2.8857549533991E-03
(PID.TID 0000.0001) %MON dynstat_vvel_max             =   9.1198070171396E-02
(PID.TID 0000.0001) %MON dynstat_vvel_min             =  -1.3831915628368E-01
(PID.TID 0000.0001) %MON dynstat_vvel_mean            =  -1.6848126636707E-04
(PID.TID 0000.0001) %MON dynstat_vvel_sd              =   6.6028595625672E-03
(PID.TID 0000.0001) %MON dynstat_vvel_del2            =   2.4684177680183E-03
(PID.TID 0000.0001) %MON dynstat_wvel_max             =   1.2256930424385E-04
(PID.TID 0000.0001) %MON dynstat_wvel_min             =  -1.7228684692710E-04
(PID.TID 0000.0001) %MON dynstat_wvel_mean            =  -2.1384095665435E-21
(PID.TID 0000.0001) %MON dynstat_wvel_sd              =   3.0046602875402E-05
(PID.TID 0000.0001) %MON dynstat_wvel_del2            =   6.7688021300864E-06
(PID.TID 0000.0001) %MON dynstat_theta_max            =   2.6141735141127E+01
(PID.TID 0000.0001) %MON dynstat_theta_min            =   1.8064574312628E+00
(PID.TID 0000.0001) %MON dynstat_theta_mean           =   5.4786607533710E+00
(PID.TID 0000.0001) %MON dynstat_theta_sd             =   4.5932334801279E+00
(PID.TID 0000.0001) %MON dynstat_theta_del2           =   5.1052041254739E-02
(PID.TID 0000.0001) %MON dynstat_salt_max             =   3.7405204619875E+01
(PID.TID 0000.0001) %MON dynstat_salt_min             =   3.4726809192337E+01
(PID.TID 0000.0001) %MON dynstat_salt_mean            =   3.5157572980017E+01
(PID.TID 0000.0001) %MON dynstat_salt_sd              =   4.1381496200544E-01
(PID.TID 0000.0001) %MON dynstat_salt_del2            =   1.2652909984949E-02
(PID.TID 0000.0001) %MON extforcing_qnet_max          =   5.1785995483398E+01
(PID.TID 0000.0001) %MON extforcing_qnet_min          =  -1.6640010070801E+02
(PID.TID 0000.0001) %MON extforcing_qnet_mean         =  -7.1740236129939E+01
(PID.TID 0000.0001) %MON extforcing_qnet_sd           =   5.0763762302510E+01
(PID.TID 0000.0001) %MON extforcing_qnet_del2         =   7.8684455467562E+00
(PID.TID 0000.0001) %MON extforcing_qsw_max           =  -1.3305171203613E+02
(PID.TID 0000.0001) %MON extforcing_qsw_min           =  -3.1786423492432E+02
(PID.TID 0000.0001) %MON extforcing_qsw_mean          =  -2.5092606306118E+02
(PID.TID 0000.0001) %MON extforcing_qsw_sd            =   4.2226722936044E+01
(PID.TID 0000.0001) %MON extforcing_qsw_del2          =   5.5239140646798E+00
(PID.TID 0000.0001) %MON extforcing_empmr_max         =   6.8301180591135E-05
(PID.TID 0000.0001) %MON extforcing_empmr_min         =   1.4154103348663E-05
(PID.TID 0000.0001) %MON extforcing_empmr_mean        =   4.2678582644125E-05
(PID.TID 0000.0001) %MON extforcing_empmr_sd          =   1.1674717394650E-05
(PID.TID 0000.0001) %MON extforcing_empmr_del2        =   2.2951058347733E-06
(PID.TID 0000.0001) %MON advcfl_uvel_max              =   3.7250038835162E-03
(PID.TID 0000.0001) %MON advcfl_vvel_max              =   2.2394328077798E-03
(PID.TID 0000.0001) %MON advcfl_wvel_max              =   4.5751975830458E-03
(PID.TID 0000.0001) %MON advcfl_W_hf_max              =   5.7189969788072E-03
(PID.TID 0000.0001) %MON pe_b_mean                    =   7.1273520553848E-06
(PID.TID 0000.0001) %MON ke_max                       =   2.5880882792437E-02
(PID.TID 0000.0001) %MON ke_mean                      =   5.9470107585750E-05
(PID.TID 0000.0001) %MON ke_vol                       =   3.6027486600263E+16
(PID.TID 0000.0001) %MON vort_r_min                   =  -5.0102221010957E-07
(PID.TID 0000.0001) %MON vort_r_max                   =   7.9816836333011E-07
(PID.TID 0000.0001) %MON vort_a_mean                  =   6.1944475191297E-05
(PID.TID 0000.0001) %MON vort_a_sd                    =   1.9197576564399E-05
(PID.TID 0000.0001) %MON vort_p_mean                  =   7.7881882182936E-05
(PID.TID 0000.0001) %MON vort_p_sd                    =   5.6365461712372E-05
(PID.TID 0000.0001) %MON surfExpan_theta_mean         =   1.5390227620559E-06
(PID.TID 0000.0001) %MON surfExpan_salt_mean          =  -7.9375430108876E-08
(PID.TID 0000.0001) // =======================================================
(PID.TID 0000.0001) // End MONITOR dynamic field statistics
(PID.TID 0000.0001) // =======================================================
(PID.TID 0000.0001) // =======================================================
(PID.TID 0000.0001) // Begin MONITOR ptracer field statistics
(PID.TID 0000.0001) // =======================================================
(PID.TID 0000.0001) %MON trcstat_ptracer01_max        =   3.7400905180345E+01
(PID.TID 0000.0001) %MON trcstat_ptracer01_min        =   3.4726800694457E+01
(PID.TID 0000.0001) %MON trcstat_ptracer01_mean       =   3.5157554235515E+01
(PID.TID 0000.0001) %MON trcstat_ptracer01_sd         =   4.1375898181864E-01
(PID.TID 0000.0001) %MON trcstat_ptracer01_del2       =   1.2653731701262E-02
(PID.TID 0000.0001) // =======================================================
(PID.TID 0000.0001) // End MONITOR ptracers field statistics
(PID.TID 0000.0001) // =======================================================
time,SST,SSS,fu,fv,Q,E-P,i0,i1,a,b =   7.9200E+04  0.0000E+00  0.0000E+00 -0.0000E+00 -0.0000E+00  0.0000E+00  0.0000E+00     2     3  3.3333E-01  6.6667E-01
time,fu0,fu1,fu =   7.9200E+04 -0.0000E+00 -0.0000E+00 -0.0000E+00  3.333333333333333E-01  6.666666666666667E-01
 cg2d: Sum(rhs),rhsMax =   2.30926389122033E-14  5.50099603606402E-01
(PID.TID 0000.0001)                    cg2d_init_res =    7.84140055155517E-02
(PID.TID 0000.0001)                       cg2d_iters =    44
(PID.TID 0000.0001)                         cg2d_res =    6.40543753441674E-14
(PID.TID 0000.0001) // =======================================================
(PID.TID 0000.0001) // Begin MONITOR dynamic field statistics
(PID.TID 0000.0001) // =======================================================
(PID.TID 0000.0001) %MON time_tsnumber                =                    17
(PID.TID 0000.0001) %MON time_secondsf                =   8.2800000000000E+04
(PID.TID 0000.0001) %MON dynstat_eta_max              =   1.5414048155487E-01
(PID.TID 0000.0001) %MON dynstat_eta_min              =  -2.2195998714499E-01
(PID.TID 0000.0001) %MON dynstat_eta_mean             =  -1.2684426093299E-16
(PID.TID 0000.0001) %MON dynstat_eta_sd               =   7.8163958948558E-02
(PID.TID 0000.0001) %MON dynstat_eta_del2             =   4.6844330836018E-03
(PID.TID 0000.0001) %MON dynstat_uvel_max             =   3.6438903451184E-02
(PID.TID 0000.0001) %MON dynstat_uvel_min             =  -2.2260061857952E-01
(PID.TID 0000.0001) %MON dynstat_uvel_mean            =  -1.0526581767752E-04
(PID.TID 0000.0001) %MON dynstat_uvel_sd              =   9.2025252291879E-03
(PID.TID 0000.0001) %MON dynstat_uvel_del2            =   2.6047985482753E-03
(PID.TID 0000.0001) %MON dynstat_vvel_max             =   1.0148634361401E-01
(PID.TID 0000.0001) %MON dynstat_vvel_min             =  -1.3381585220213E-01
(PID.TID 0000.0001) %MON dynstat_vvel_mean            =  -1.4860116664410E-04
(PID.TID 0000.0001) %MON dynstat_vvel_sd              =   6.3969617541395E-03
(PID.TID 0000.0001) %MON dynstat_vvel_del2            =   2.4128681581977E-03
(PID.TID 0000.0001) %MON dynstat_wvel_max             =   1.1001916998106E-04
(PID.TID 0000.0001) %MON dynstat_wvel_min             =  -1.7364759436326E-04
(PID.TID 0000.0001) %MON dynstat_wvel_mean            =   0.0000000000000E+00
(PID.TID 0000.0001) %MON dynstat_wvel_sd              =   2.8591496882378E-05
(PID.TID 0000.0001) %MON dynstat_wvel_del2            =   6.3424422369501E-06
(PID.TID 0000.0001) %MON dynstat_theta_max            =   2.6147810135037E+01
(PID.TID 0000.0001) %MON dynstat_theta_min            =   1.8064594326649E+00
(PID.TID 0000.0001) %MON dynstat_theta_mean           =   5.4786748469223E+00
(PID.TID 0000.0001) %MON dynstat_theta_sd             =   4.5932799669381E+00
(PID.TID 0000.0001) %MON dynstat_theta_del2           =   5.1128194163795E-02
(PID.TID 0000.0001) %MON dynstat_salt_max             =   3.7405596273153E+01
(PID.TID 0000.0001) %MON dynstat_salt_min             =   3.4726814651168E+01
(PID.TID 0000.0001) %MON dynstat_salt_mean            =   3.5157574465680E+01
(PID.TID 0000.0001) %MON dynstat_salt_sd              =   4.1381888402947E-01
(PID.TID 0000.0001) %MON dynstat_salt_del2            =   1.2655158833115E-02
(PID.TID 0000.0001) %MON extforcing_qnet_max          =   5.2881464640299E+01
(PID.TID 0000.0001) %MON extforcing_qnet_min          =  -1.6767020924886E+02
(PID.TID 0000.0001) %MON extforcing_qnet_mean         =  -7.0784560829959E+01
(PID.TID 0000.0001) %MON extforcing_qnet_sd           =   5.0376618745466E+01
(PID.TID 0000.0001) %MON extforcing_qnet_del2         =   7.8122522952326E+00
(PID.TID 0000.0001) %MON extforcing_qsw_max           =  -1.3255586751302E+02
(PID.TID 0000.0001) %MON extforcing_qsw_min           =  -3.1758445231120E+02
(PID.TID 0000.0001) %MON extforcing_qsw_mean          =  -2.5137408645830E+02
(PID.TID 0000.0001) %MON extforcing_qsw_sd            =   4.2032969606024E+01
(PID.TID 0000.0001) %MON extforcing_qsw_del2          =   5.4213342525689E+00
(PID.TID 0000.0001) %MON extforcing_empmr_max         =   6.8865692161542E-05
(PID.TID 0000.0001) %MON extforcing_empmr_min         =   1.4238836827474E-05
(PID.TID 0000.0001) %MON extforcing_empmr_mean        =   4.3099855155366E-05
(PID.TID 0000.0001) %MON extforcing_empmr_sd          =   1.1631123659352E-05
(PID.TID 0000.0001) %MON extforcing_empmr_del2        =   2.2961928428759E-06
(PID.TID 0000.0001) %MON advcfl_uvel_max              =   3.7311120695681E-03
(PID.TID 0000.0001) %MON advcfl_vvel_max              =   2.1665228278856E-03
(PID.TID 0000.0001) %MON advcfl_wvel_max              =   4.8637206785932E-03
(PID.TID 0000.0001) %MON advcfl_W_hf_max              =   6.0796508482415E-03
(PID.TID 0000.0001) %MON pe_b_mean                    =   7.3645328497904E-06
(PID.TID 0000.0001) %MON ke_max                       =   2.6202573840846E-02
(PID.TID 0000.0001) %MON ke_mean                      =   5.6121309611410E-05
(PID.TID 0000.0001) %MON ke_vol                       =   3.6027486600263E+16
(PID.TID 0000.0001) %MON vort_r_min                   =  -4.9298193391042E-07
(PID.TID 0000.0001) %MON vort_r_max                   =   7.8791051257669E-07
(PID.TID 0000.0001) %MON vort_a_mean                  =   6.1944475191297E-05
(PID.TID 0000.0001) %MON vort_a_sd                    =   1.9197598192512E-05
(PID.TID 0000.0001) %MON vort_p_mean                  =   7.7881882182936E-05
(PID.TID 0000.0001) %MON vort_p_sd                    =   5.6366053122768E-05
(PID.TID 0000.0001) %MON surfExpan_theta_mean         =   1.2513396619787E-06
(PID.TID 0000.0001) %MON surfExpan_salt_mean          =  -8.6171730362171E-08
(PID.TID 0000.0001) // =======================================================
(PID.TID 0000.0001) // End MONITOR dynamic field statistics
(PID.TID 0000.0001) // =======================================================
(PID.TID 0000.0001) // =======================================================
(PID.TID 0000.0001) // Begin MONITOR ptracer field statistics
(PID.TID 0000.0001) // =======================================================
(PID.TID 0000.0001) %MON trcstat_ptracer01_max        =   3.7400905180345E+01
(PID.TID 0000.0001) %MON trcstat_ptracer01_min        =   3.4726800694457E+01
(PID.TID 0000.0001) %MON trcstat_ptracer01_mean       =   3.5157554235515E+01
(PID.TID 0000.0001) %MON trcstat_ptracer01_sd         =   4.1375898181864E-01
(PID.TID 0000.0001) %MON trcstat_ptracer01_del2       =   1.2653731701262E-02
(PID.TID 0000.0001) // =======================================================
(PID.TID 0000.0001) // End MONITOR ptracers field statistics
(PID.TID 0000.0001) // =======================================================
time,SST,SSS,fu,fv,Q,E-P,i0,i1,a,b =   8.2800E+04  0.0000E+00  0.0000E+00 -0.0000E+00 -0.0000E+00  0.0000E+00  0.0000E+00     2     3  4.1667E-01  5.8333E-01
time,fu0,fu1,fu =   8.2800E+04 -0.0000E+00 -0.0000E+00 -0.0000E+00  4.166666666666667E-01  5.833333333333333E-01
 cg2d: Sum(rhs),rhsMax =   1.59872115546023E-14  5.52065955748929E-01
(PID.TID 0000.0001)                    cg2d_init_res =    6.93139150176845E-02
(PID.TID 0000.0001)                       cg2d_iters =    44
(PID.TID 0000.0001)                         cg2d_res =    8.31942376122487E-14
(PID.TID 0000.0001) // =======================================================
(PID.TID 0000.0001) // Begin MONITOR dynamic field statistics
(PID.TID 0000.0001) // =======================================================
(PID.TID 0000.0001) %MON time_tsnumber                =                    18
(PID.TID 0000.0001) %MON time_secondsf                =   8.6400000000000E+04
(PID.TID 0000.0001) %MON dynstat_eta_max              =   1.5412241061820E-01
(PID.TID 0000.0001) %MON dynstat_eta_min              =  -2.2502214186634E-01
(PID.TID 0000.0001) %MON dynstat_eta_mean             =  -1.1581432519968E-16
(PID.TID 0000.0001) %MON dynstat_eta_sd               =   7.8795126258794E-02
(PID.TID 0000.0001) %MON dynstat_eta_del2             =   4.7278208865143E-03
(PID.TID 0000.0001) %MON dynstat_uvel_max             =   3.5352582321263E-02
(PID.TID 0000.0001) %MON dynstat_uvel_min             =  -2.2125063253915E-01
(PID.TID 0000.0001) %MON dynstat_uvel_mean            =  -7.0835908581877E-05
(PID.TID 0000.0001) %MON dynstat_uvel_sd              =   8.8888552930706E-03
(PID.TID 0000.0001) %MON dynstat_uvel_del2            =   2.3516784809423E-03
(PID.TID 0000.0001) %MON dynstat_vvel_max             =   1.1316275938665E-01
(PID.TID 0000.0001) %MON dynstat_vvel_min             =  -1.2774476596200E-01
(PID.TID 0000.0001) %MON dynstat_vvel_mean            =  -9.0746323631042E-05
(PID.TID 0000.0001) %MON dynstat_vvel_sd              =   6.2094576244493E-03
(PID.TID 0000.0001) %MON dynstat_vvel_del2            =   2.2924701747956E-03
(PID.TID 0000.0001) %MON dynstat_wvel_max             =   9.5921184487910E-05
(PID.TID 0000.0001) %MON dynstat_wvel_min             =  -1.7335671739920E-04
(PID.TID 0000.0001) %MON dynstat_wvel_mean            =   1.1254787192334E-21
(PID.TID 0000.0001) %MON dynstat_wvel_sd              =   2.6911665732553E-05
(PID.TID 0000.0001) %MON dynstat_wvel_del2            =   5.8154107270281E-06
(PID.TID 0000.0001) %MON dynstat_theta_max            =   2.6153801683862E+01
(PID.TID 0000.0001) %MON dynstat_theta_min            =   1.8064616701955E+00
(PID.TID 0000.0001) %MON dynstat_theta_mean           =   5.4786892359623E+00
(PID.TID 0000.0001) %MON dynstat_theta_sd             =   4.5933275694170E+00
(PID.TID 0000.0001) %MON dynstat_theta_del2           =   5.1204469507563E-02
(PID.TID 0000.0001) %MON dynstat_salt_max             =   3.7405986337108E+01
(PID.TID 0000.0001) %MON dynstat_salt_min             =   3.4726820571935E+01
(PID.TID 0000.0001) %MON dynstat_salt_mean            =   3.5157575946545E+01
(PID.TID 0000.0001) %MON dynstat_salt_sd              =   4.1382283230098E-01
(PID.TID 0000.0001) %MON dynstat_salt_del2            =   1.2656903901110E-02
(PID.TID 0000.0001) %MON extforcing_qnet_max          =   5.4347905476888E+01
(PID.TID 0000.0001) %MON extforcing_qnet_min          =  -1.6894031778971E+02
(PID.TID 0000.0001) %MON extforcing_qnet_mean         =  -6.9828885529979E+01
(PID.TID 0000.0001) %MON extforcing_qnet_sd           =   5.0046698479458E+01
(PID.TID 0000.0001) %MON extforcing_qnet_del2         =   7.7698886273138E+00
(PID.TID 0000.0001) %MON extforcing_qsw_max           =  -1.3206002298991E+02
(PID.TID 0000.0001) %MON extforcing_qsw_min           =  -3.1730466969808E+02
(PID.TID 0000.0001) %MON extforcing_qsw_mean          =  -2.5182210985542E+02
(PID.TID 0000.0001) %MON extforcing_qsw_sd            =   4.1891013837849E+01
(PID.TID 0000.0001) %MON extforcing_qsw_del2          =   5.3378500037984E+00
(PID.TID 0000.0001) %MON extforcing_empmr_max         =   6.9430203731950E-05
(PID.TID 0000.0001) %MON extforcing_empmr_min         =   1.4323570306285E-05
(PID.TID 0000.0001) %MON extforcing_empmr_mean        =   4.3521127666606E-05
(PID.TID 0000.0001) %MON extforcing_empmr_sd          =   1.1605877390574E-05
(PID.TID 0000.0001) %MON extforcing_empmr_del2        =   2.2998797237074E-06
(PID.TID 0000.0001) %MON advcfl_uvel_max              =   3.7084843282746E-03
(PID.TID 0000.0001) %MON advcfl_vvel_max              =   2.0682299372239E-03
(PID.TID 0000.0001) %MON advcfl_wvel_max              =   5.0307610266000E-03
(PID.TID 0000.0001) %MON advcfl_W_hf_max              =   6.2884512832500E-03
(PID.TID 0000.0001) %MON pe_b_mean                    =   7.4839489994782E-06
(PID.TID 0000.0001) %MON ke_max                       =   2.6268888833989E-02
(PID.TID 0000.0001) %MON ke_mean                      =   5.2519044250474E-05
(PID.TID 0000.0001) %MON ke_vol                       =   3.6027486600263E+16
(PID.TID 0000.0001) %MON vort_r_min                   =  -4.6366483509127E-07
(PID.TID 0000.0001) %MON vort_r_max                   =   7.7566413591851E-07
(PID.TID 0000.0001) %MON vort_a_mean                  =   6.1944475191297E-05
(PID.TID 0000.0001) %MON vort_a_sd                    =   1.9197622277651E-05
(PID.TID 0000.0001) %MON vort_p_mean                  =   7.7881882182936E-05
(PID.TID 0000.0001) %MON vort_p_sd                    =   5.6366800232654E-05
(PID.TID 0000.0001) %MON surfExpan_theta_mean         =   6.9542688626181E-07
(PID.TID 0000.0001) %MON surfExpan_salt_mean          =  -6.2438264379906E-08
(PID.TID 0000.0001) // =======================================================
(PID.TID 0000.0001) // End MONITOR dynamic field statistics
(PID.TID 0000.0001) // =======================================================
(PID.TID 0000.0001) // =======================================================
(PID.TID 0000.0001) // Begin MONITOR ptracer field statistics
(PID.TID 0000.0001) // =======================================================
(PID.TID 0000.0001) %MON trcstat_ptracer01_max        =   3.7401037221889E+01
(PID.TID 0000.0001) %MON trcstat_ptracer01_min        =   3.4726819991230E+01
(PID.TID 0000.0001) %MON trcstat_ptracer01_mean       =   3.5157554787703E+01
(PID.TID 0000.0001) %MON trcstat_ptracer01_sd         =   4.1375829104353E-01
(PID.TID 0000.0001) %MON trcstat_ptracer01_del2       =   1.2661223042614E-02
(PID.TID 0000.0001) // =======================================================
(PID.TID 0000.0001) // End MONITOR ptracers field statistics
(PID.TID 0000.0001) // =======================================================
 Computing Diagnostic #    211  TRAC01       Counter:       1   Parms: SM P    MR      
time,SST,SSS,fu,fv,Q,E-P,i0,i1,a,b =   8.6400E+04  0.0000E+00  0.0000E+00 -0.0000E+00 -0.0000E+00  0.0000E+00  0.0000E+00     2     3  5.0000E-01  5.0000E-01
time,fu0,fu1,fu =   8.6400E+04 -0.0000E+00 -0.0000E+00 -0.0000E+00  5.000000000000000E-01  5.000000000000000E-01
 cg2d: Sum(rhs),rhsMax =   1.59872115546023E-14  5.52305759355772E-01
(PID.TID 0000.0001)                    cg2d_init_res =    6.30557149480294E-02
(PID.TID 0000.0001)                       cg2d_iters =    44
(PID.TID 0000.0001)                         cg2d_res =    9.16632049413887E-14
(PID.TID 0000.0001) // =======================================================
(PID.TID 0000.0001) // Begin MONITOR dynamic field statistics
(PID.TID 0000.0001) // =======================================================
(PID.TID 0000.0001) %MON time_tsnumber                =                    19
(PID.TID 0000.0001) %MON time_secondsf                =   9.0000000000000E+04
(PID.TID 0000.0001) %MON dynstat_eta_max              =   1.5333413145365E-01
(PID.TID 0000.0001) %MON dynstat_eta_min              =  -2.2625647763350E-01
(PID.TID 0000.0001) %MON dynstat_eta_mean             =  -1.2132929306633E-16
(PID.TID 0000.0001) %MON dynstat_eta_sd               =   7.8800826230185E-02
(PID.TID 0000.0001) %MON dynstat_eta_del2             =   4.7710077490526E-03
(PID.TID 0000.0001) %MON dynstat_uvel_max             =   3.2648894945968E-02
(PID.TID 0000.0001) %MON dynstat_uvel_min             =  -2.1830334293037E-01
(PID.TID 0000.0001) %MON dynstat_uvel_mean            =  -4.2569439643716E-05
(PID.TID 0000.0001) %MON dynstat_uvel_sd              =   8.5398384733540E-03
(PID.TID 0000.0001) %MON dynstat_uvel_del2            =   2.1615574814848E-03
(PID.TID 0000.0001) %MON dynstat_vvel_max             =   1.2340099606325E-01
(PID.TID 0000.0001) %MON dynstat_vvel_min             =  -1.2152870718011E-01
(PID.TID 0000.0001) %MON dynstat_vvel_mean            =  -2.1829370211275E-05
(PID.TID 0000.0001) %MON dynstat_vvel_sd              =   6.0704668753679E-03
(PID.TID 0000.0001) %MON dynstat_vvel_del2            =   2.1469269633121E-03
(PID.TID 0000.0001) %MON dynstat_wvel_max             =   8.0674912786726E-05
(PID.TID 0000.0001) %MON dynstat_wvel_min             =  -1.7154421148557E-04
(PID.TID 0000.0001) %MON dynstat_wvel_mean            =   1.0129308473101E-21
(PID.TID 0000.0001) %MON dynstat_wvel_sd              =   2.5311076846978E-05
(PID.TID 0000.0001) %MON dynstat_wvel_del2            =   5.3986624101966E-06
(PID.TID 0000.0001) %MON dynstat_theta_max            =   2.6159721077064E+01
(PID.TID 0000.0001) %MON dynstat_theta_min            =   1.8064641487836E+00
(PID.TID 0000.0001) %MON dynstat_theta_mean           =   5.4787040504364E+00
(PID.TID 0000.0001) %MON dynstat_theta_sd             =   4.5933767653376E+00
(PID.TID 0000.0001) %MON dynstat_theta_del2           =   5.1272764530342E-02
(PID.TID 0000.0001) %MON dynstat_salt_max             =   3.7406375072616E+01
(PID.TID 0000.0001) %MON dynstat_salt_min             =   3.4726826926841E+01
(PID.TID 0000.0001) %MON dynstat_salt_mean            =   3.5157577402575E+01
(PID.TID 0000.0001) %MON dynstat_salt_sd              =   4.1382675430777E-01
(PID.TID 0000.0001) %MON dynstat_salt_del2            =   1.2658409307496E-02
(PID.TID 0000.0001) %MON extforcing_qnet_max          =   5.5814346313477E+01
(PID.TID 0000.0001) %MON extforcing_qnet_min          =  -1.7021042633057E+02
(PID.TID 0000.0001) %MON extforcing_qnet_mean         =  -6.8873210229999E+01
(PID.TID 0000.0001) %MON extforcing_qnet_sd           =   4.9775139382117E+01
(PID.TID 0000.0001) %MON extforcing_qnet_del2         =   7.7450188603894E+00
(PID.TID 0000.0001) %MON extforcing_qsw_max           =  -1.3156417846680E+02
(PID.TID 0000.0001) %MON extforcing_qsw_min           =  -3.1702488708496E+02
(PID.TID 0000.0001) %MON extforcing_qsw_mean          =  -2.5227013325255E+02
(PID.TID 0000.0001) %MON extforcing_qsw_sd            =   4.1801383341981E+01
(PID.TID 0000.0001) %MON extforcing_qsw_del2          =   5.2682711408643E+00
(PID.TID 0000.0001) %MON extforcing_empmr_max         =   6.9994715302357E-05
(PID.TID 0000.0001) %MON extforcing_empmr_min         =   1.4408303785096E-05
(PID.TID 0000.0001) %MON extforcing_empmr_mean        =   4.3942400177846E-05
(PID.TID 0000.0001) %MON extforcing_empmr_sd          =   1.1599098392661E-05
(PID.TID 0000.0001) %MON extforcing_empmr_del2        =   2.3051954866864E-06
(PID.TID 0000.0001) %MON advcfl_uvel_max              =   3.6590834420507E-03
(PID.TID 0000.0001) %MON advcfl_vvel_max              =   1.9979028684211E-03
(PID.TID 0000.0001) %MON advcfl_wvel_max              =   5.1084800022145E-03
(PID.TID 0000.0001) %MON advcfl_W_hf_max              =   6.3856000027681E-03
(PID.TID 0000.0001) %MON pe_b_mean                    =   7.4850318034573E-06
(PID.TID 0000.0001) %MON ke_max                       =   2.6073276852593E-02
(PID.TID 0000.0001) %MON ke_mean                      =   4.9025515639757E-05
(PID.TID 0000.0001) %MON ke_vol                       =   3.6027486600263E+16
(PID.TID 0000.0001) %MON vort_r_min                   =  -4.1698811948209E-07
(PID.TID 0000.0001) %MON vort_r_max                   =   7.6153679872922E-07
(PID.TID 0000.0001) %MON vort_a_mean                  =   6.1944475191297E-05
(PID.TID 0000.0001) %MON vort_a_sd                    =   1.9197641623981E-05
(PID.TID 0000.0001) %MON vort_p_mean                  =   7.7881882182936E-05
(PID.TID 0000.0001) %MON vort_p_sd                    =   5.6367604654456E-05
(PID.TID 0000.0001) %MON surfExpan_theta_mean         =   9.6042209144965E-08
(PID.TID 0000.0001) %MON surfExpan_salt_mean          =  -2.4908536528031E-08
(PID.TID 0000.0001) // =======================================================
(PID.TID 0000.0001) // End MONITOR dynamic field statistics
(PID.TID 0000.0001) // =======================================================
(PID.TID 0000.0001) // =======================================================
(PID.TID 0000.0001) // Begin MONITOR ptracer field statistics
(PID.TID 0000.0001) // =======================================================
(PID.TID 0000.0001) %MON trcstat_ptracer01_max        =   3.7401037221889E+01
(PID.TID 0000.0001) %MON trcstat_ptracer01_min        =   3.4726819991230E+01
(PID.TID 0000.0001) %MON trcstat_ptracer01_mean       =   3.5157554787703E+01
(PID.TID 0000.0001) %MON trcstat_ptracer01_sd         =   4.1375829104353E-01
(PID.TID 0000.0001) %MON trcstat_ptracer01_del2       =   1.2661223042614E-02
(PID.TID 0000.0001) // =======================================================
(PID.TID 0000.0001) // End MONITOR ptracers field statistics
(PID.TID 0000.0001) // =======================================================
time,SST,SSS,fu,fv,Q,E-P,i0,i1,a,b =   9.0000E+04  0.0000E+00  0.0000E+00 -0.0000E+00 -0.0000E+00  0.0000E+00  0.0000E+00     2     3  5.8333E-01  4.1667E-01
time,fu0,fu1,fu =   9.0000E+04 -0.0000E+00 -0.0000E+00 -0.0000E+00  5.833333333333334E-01  4.166666666666666E-01
 cg2d: Sum(rhs),rhsMax =   2.48689957516035E-14  5.50663765202452E-01
(PID.TID 0000.0001)                    cg2d_init_res =    6.13483202292948E-02
(PID.TID 0000.0001)                       cg2d_iters =    44
(PID.TID 0000.0001)                         cg2d_res =    8.05109548666775E-14
(PID.TID 0000.0001) // =======================================================
(PID.TID 0000.0001) // Begin MONITOR dynamic field statistics
(PID.TID 0000.0001) // =======================================================
(PID.TID 0000.0001) %MON time_tsnumber                =                    20
(PID.TID 0000.0001) %MON time_secondsf                =   9.3600000000000E+04
(PID.TID 0000.0001) %MON dynstat_eta_max              =   1.5215080318010E-01
(PID.TID 0000.0001) %MON dynstat_eta_min              =  -2.2593821652290E-01
(PID.TID 0000.0001) %MON dynstat_eta_mean             =  -1.3235922879964E-16
(PID.TID 0000.0001) %MON dynstat_eta_sd               =   7.8378937372062E-02
(PID.TID 0000.0001) %MON dynstat_eta_del2             =   4.8111114574668E-03
(PID.TID 0000.0001) %MON dynstat_uvel_max             =   3.2411311704599E-02
(PID.TID 0000.0001) %MON dynstat_uvel_min             =  -2.1389079070713E-01
(PID.TID 0000.0001) %MON dynstat_uvel_mean            =  -2.7165619184306E-05
(PID.TID 0000.0001) %MON dynstat_uvel_sd              =   8.1803861249828E-03
(PID.TID 0000.0001) %MON dynstat_uvel_del2            =   2.0544959050322E-03
(PID.TID 0000.0001) %MON dynstat_vvel_max             =   1.3198018516096E-01
(PID.TID 0000.0001) %MON dynstat_vvel_min             =  -1.1527944240434E-01
(PID.TID 0000.0001) %MON dynstat_vvel_mean            =   3.5975681872751E-05
(PID.TID 0000.0001) %MON dynstat_vvel_sd              =   5.9994538991857E-03
(PID.TID 0000.0001) %MON dynstat_vvel_del2            =   2.0396866505933E-03
(PID.TID 0000.0001) %MON dynstat_wvel_max             =   6.6297747777656E-05
(PID.TID 0000.0001) %MON dynstat_wvel_min             =  -1.6835212280603E-04
(PID.TID 0000.0001) %MON dynstat_wvel_mean            =   1.0129308473101E-21
(PID.TID 0000.0001) %MON dynstat_wvel_sd              =   2.4136353288500E-05
(PID.TID 0000.0001) %MON dynstat_wvel_del2            =   5.2988919563321E-06
(PID.TID 0000.0001) %MON dynstat_theta_max            =   2.6165568519655E+01
(PID.TID 0000.0001) %MON dynstat_theta_min            =   1.8064668663337E+00
(PID.TID 0000.0001) %MON dynstat_theta_mean           =   5.4787192092136E+00
(PID.TID 0000.0001) %MON dynstat_theta_sd             =   4.5934272476121E+00
(PID.TID 0000.0001) %MON dynstat_theta_del2           =   5.1333105297425E-02
(PID.TID 0000.0001) %MON dynstat_salt_max             =   3.7406763883661E+01
(PID.TID 0000.0001) %MON dynstat_salt_min             =   3.4726833744924E+01
(PID.TID 0000.0001) %MON dynstat_salt_mean            =   3.5157578830529E+01
(PID.TID 0000.0001) %MON dynstat_salt_sd              =   4.1383063449000E-01
(PID.TID 0000.0001) %MON dynstat_salt_del2            =   1.2659650202944E-02
(PID.TID 0000.0001) %MON extforcing_qnet_max          =   5.7280787150065E+01
(PID.TID 0000.0001) %MON extforcing_qnet_min          =  -1.7148053487142E+02
(PID.TID 0000.0001) %MON extforcing_qnet_mean         =  -6.7917534930019E+01
(PID.TID 0000.0001) %MON extforcing_qnet_sd           =   4.9562900759258E+01
(PID.TID 0000.0001) %MON extforcing_qnet_del2         =   7.7331181872263E+00
(PID.TID 0000.0001) %MON extforcing_qsw_max           =  -1.3106833394368E+02
(PID.TID 0000.0001) %MON extforcing_qsw_min           =  -3.1762956492106E+02
(PID.TID 0000.0001) %MON extforcing_qsw_mean          =  -2.5271815664967E+02
(PID.TID 0000.0001) %MON extforcing_qsw_sd            =   4.1764415005147E+01
(PID.TID 0000.0001) %MON extforcing_qsw_del2          =   5.2155629425800E+00
(PID.TID 0000.0001) %MON extforcing_empmr_max         =   7.0559226872765E-05
(PID.TID 0000.0001) %MON extforcing_empmr_min         =   1.4493037263907E-05
(PID.TID 0000.0001) %MON extforcing_empmr_mean        =   4.4363672689087E-05
(PID.TID 0000.0001) %MON extforcing_empmr_sd          =   1.1610819012107E-05
(PID.TID 0000.0001) %MON extforcing_empmr_del2        =   2.3117338043803E-06
(PID.TID 0000.0001) %MON advcfl_uvel_max              =   3.5851226104825E-03
(PID.TID 0000.0001) %MON advcfl_vvel_max              =   2.1368027724239E-03
(PID.TID 0000.0001) %MON advcfl_wvel_max              =   5.1308969675017E-03
(PID.TID 0000.0001) %MON advcfl_W_hf_max              =   6.4136212093771E-03
(PID.TID 0000.0001) %MON pe_b_mean                    =   7.4050986779197E-06
(PID.TID 0000.0001) %MON ke_max                       =   2.5612705995737E-02
(PID.TID 0000.0001) %MON ke_mean                      =   4.5942706321271E-05
(PID.TID 0000.0001) %MON ke_vol                       =   3.6027486600263E+16
(PID.TID 0000.0001) %MON vort_r_min                   =  -3.8786692331558E-07
(PID.TID 0000.0001) %MON vort_r_max                   =   7.4529276118656E-07
(PID.TID 0000.0001) %MON vort_a_mean                  =   6.1944475191297E-05
(PID.TID 0000.0001) %MON vort_a_sd                    =   1.9197651038365E-05
(PID.TID 0000.0001) %MON vort_p_mean                  =   7.7881882182936E-05
(PID.TID 0000.0001) %MON vort_p_sd                    =   5.6368367322277E-05
(PID.TID 0000.0001) %MON surfExpan_theta_mean         =  -3.6780611245500E-07
(PID.TID 0000.0001) %MON surfExpan_salt_mean          =   1.2359196285264E-08
(PID.TID 0000.0001) // =======================================================
(PID.TID 0000.0001) // End MONITOR dynamic field statistics
(PID.TID 0000.0001) // =======================================================
(PID.TID 0000.0001) // =======================================================
(PID.TID 0000.0001) // Begin MONITOR ptracer field statistics
(PID.TID 0000.0001) // =======================================================
(PID.TID 0000.0001) %MON trcstat_ptracer01_max        =   3.7401037221889E+01
(PID.TID 0000.0001) %MON trcstat_ptracer01_min        =   3.4726819991230E+01
(PID.TID 0000.0001) %MON trcstat_ptracer01_mean       =   3.5157554787703E+01
(PID.TID 0000.0001) %MON trcstat_ptracer01_sd         =   4.1375829104353E-01
(PID.TID 0000.0001) %MON trcstat_ptracer01_del2       =   1.2661223042614E-02
(PID.TID 0000.0001) // =======================================================
(PID.TID 0000.0001) // End MONITOR ptracers field statistics
(PID.TID 0000.0001) // =======================================================
time,SST,SSS,fu,fv,Q,E-P,i0,i1,a,b =   9.3600E+04  0.0000E+00  0.0000E+00 -0.0000E+00 -0.0000E+00  0.0000E+00  0.0000E+00     2     3  6.6667E-01  3.3333E-01
time,fu0,fu1,fu =   9.3600E+04 -0.0000E+00 -0.0000E+00 -0.0000E+00  6.666666666666666E-01  3.333333333333334E-01
 cg2d: Sum(rhs),rhsMax =   2.84217094304040E-14  5.47440479164492E-01
(PID.TID 0000.0001)                    cg2d_init_res =    6.14420692374945E-02
(PID.TID 0000.0001)                       cg2d_iters =    44
(PID.TID 0000.0001)                         cg2d_res =    7.13569547298127E-14
(PID.TID 0000.0001) // =======================================================
(PID.TID 0000.0001) // Begin MONITOR dynamic field statistics
(PID.TID 0000.0001) // =======================================================
(PID.TID 0000.0001) %MON time_tsnumber                =                    21
(PID.TID 0000.0001) %MON time_secondsf                =   9.7200000000000E+04
(PID.TID 0000.0001) %MON dynstat_eta_max              =   1.5097558099265E-01
(PID.TID 0000.0001) %MON dynstat_eta_min              =  -2.2475426969792E-01
(PID.TID 0000.0001) %MON dynstat_eta_mean             =  -1.7647897173285E-16
(PID.TID 0000.0001) %MON dynstat_eta_sd               =   7.7827523699416E-02
(PID.TID 0000.0001) %MON dynstat_eta_del2             =   4.8497815908576E-03
(PID.TID 0000.0001) %MON dynstat_uvel_max             =   3.1366406742269E-02
(PID.TID 0000.0001) %MON dynstat_uvel_min             =  -2.0814912693539E-01
(PID.TID 0000.0001) %MON dynstat_uvel_mean            =  -2.7151261209062E-05
(PID.TID 0000.0001) %MON dynstat_uvel_sd              =   7.8392009332876E-03
(PID.TID 0000.0001) %MON dynstat_uvel_del2            =   1.9978412829758E-03
(PID.TID 0000.0001) %MON dynstat_vvel_max             =   1.3873735220341E-01
(PID.TID 0000.0001) %MON dynstat_vvel_min             =  -1.0911034991307E-01
(PID.TID 0000.0001) %MON dynstat_vvel_mean            =   6.9818991798947E-05
(PID.TID 0000.0001) %MON dynstat_vvel_sd              =   5.9986481675149E-03
(PID.TID 0000.0001) %MON dynstat_vvel_del2            =   2.0175916873363E-03
(PID.TID 0000.0001) %MON dynstat_wvel_max             =   7.4516215518836E-05
(PID.TID 0000.0001) %MON dynstat_wvel_min             =  -1.6356054899669E-04
(PID.TID 0000.0001) %MON dynstat_wvel_mean            =  -8.4410903942507E-22
(PID.TID 0000.0001) %MON dynstat_wvel_sd              =   2.3633730766378E-05
(PID.TID 0000.0001) %MON dynstat_wvel_del2            =   5.4023909210630E-06
(PID.TID 0000.0001) %MON dynstat_theta_max            =   2.6171336267028E+01
(PID.TID 0000.0001) %MON dynstat_theta_min            =   1.8064698191725E+00
(PID.TID 0000.0001) %MON dynstat_theta_mean           =   5.4787344972873E+00
(PID.TID 0000.0001) %MON dynstat_theta_sd             =   4.5934782183322E+00
(PID.TID 0000.0001) %MON dynstat_theta_del2           =   5.1383284777845E-02
(PID.TID 0000.0001) %MON dynstat_salt_max             =   3.7407153422555E+01
(PID.TID 0000.0001) %MON dynstat_salt_min             =   3.4726841080874E+01
(PID.TID 0000.0001) %MON dynstat_salt_mean            =   3.5157580238163E+01
(PID.TID 0000.0001) %MON dynstat_salt_sd              =   4.1383448262619E-01
(PID.TID 0000.0001) %MON dynstat_salt_del2            =   1.2660660577988E-02
(PID.TID 0000.0001) %MON extforcing_qnet_max          =   5.8747227986654E+01
(PID.TID 0000.0001) %MON extforcing_qnet_min          =  -1.7275064341227E+02
(PID.TID 0000.0001) %MON extforcing_qnet_mean         =  -6.6961859630039E+01
(PID.TID 0000.0001) %MON extforcing_qnet_sd           =   4.9410747031214E+01
(PID.TID 0000.0001) %MON extforcing_qnet_del2         =   7.7259231467161E+00
(PID.TID 0000.0001) %MON extforcing_qsw_max           =  -1.3057248942057E+02
(PID.TID 0000.0001) %MON extforcing_qsw_min           =  -3.1866255696615E+02
(PID.TID 0000.0001) %MON extforcing_qsw_mean          =  -2.5316618004679E+02
(PID.TID 0000.0001) %MON extforcing_qsw_sd            =   4.1780248618451E+01
(PID.TID 0000.0001) %MON extforcing_qsw_del2          =   5.1897492808074E+00
(PID.TID 0000.0001) %MON extforcing_empmr_max         =   7.1123738443172E-05
(PID.TID 0000.0001) %MON extforcing_empmr_min         =   1.4577770742719E-05
(PID.TID 0000.0001) %MON extforcing_empmr_mean        =   4.4784945200327E-05
(PID.TID 0000.0001) %MON extforcing_empmr_sd          =   1.1640983370527E-05
(PID.TID 0000.0001) %MON extforcing_empmr_del2        =   2.3200856165226E-06
(PID.TID 0000.0001) %MON advcfl_uvel_max              =   3.4888839246476E-03
(PID.TID 0000.0001) %MON advcfl_vvel_max              =   2.2462035377922E-03
(PID.TID 0000.0001) %MON advcfl_wvel_max              =   5.1249894619952E-03
(PID.TID 0000.0001) %MON advcfl_W_hf_max              =   6.4062368274940E-03
(PID.TID 0000.0001) %MON pe_b_mean                    =   7.3012720781154E-06
(PID.TID 0000.0001) %MON ke_max                       =   2.4891331532382E-02
(PID.TID 0000.0001) %MON ke_mean                      =   4.3479001979733E-05
(PID.TID 0000.0001) %MON ke_vol                       =   3.6027486600263E+16
(PID.TID 0000.0001) %MON vort_r_min                   =  -3.8900436973592E-07
(PID.TID 0000.0001) %MON vort_r_max                   =   7.2655829453027E-07
(PID.TID 0000.0001) %MON vort_a_mean                  =   6.1944475191297E-05
(PID.TID 0000.0001) %MON vort_a_sd                    =   1.9197648651157E-05
(PID.TID 0000.0001) %MON vort_p_mean                  =   7.7881882182936E-05
(PID.TID 0000.0001) %MON vort_p_sd                    =   5.6369004446856E-05
(PID.TID 0000.0001) %MON surfExpan_theta_mean         =  -5.9998439697847E-07
(PID.TID 0000.0001) %MON surfExpan_salt_mean          =   4.0740392444774E-08
(PID.TID 0000.0001) // =======================================================
(PID.TID 0000.0001) // End MONITOR dynamic field statistics
(PID.TID 0000.0001) // =======================================================
(PID.TID 0000.0001) // =======================================================
(PID.TID 0000.0001) // Begin MONITOR ptracer field statistics
(PID.TID 0000.0001) // =======================================================
(PID.TID 0000.0001) %MON trcstat_ptracer01_max        =   3.7401137551093E+01
(PID.TID 0000.0001) %MON trcstat_ptracer01_min        =   3.4726842374681E+01
(PID.TID 0000.0001) %MON trcstat_ptracer01_mean       =   3.5157554789677E+01
(PID.TID 0000.0001) %MON trcstat_ptracer01_sd         =   4.1375650648414E-01
(PID.TID 0000.0001) %MON trcstat_ptracer01_del2       =   1.2665008207797E-02
(PID.TID 0000.0001) // =======================================================
(PID.TID 0000.0001) // End MONITOR ptracers field statistics
(PID.TID 0000.0001) // =======================================================
 Computing Diagnostic #    211  TRAC01       Counter:       1   Parms: SM P    MR      
(PID.TID 0000.0001) %CHECKPOINT        21 ckptA
(PID.TID 0000.0001)   Seconds in section "ALL                    [THE_MODEL_MAIN]":
(PID.TID 0000.0001)           User time:   6.8500000000000005
(PID.TID 0000.0001)         System time:  0.20000000000000001
(PID.TID 0000.0001)     Wall clock time:   7.0515310764312744
(PID.TID 0000.0001)          No. starts:           1
(PID.TID 0000.0001)           No. stops:           1
(PID.TID 0000.0001)   Seconds in section "INITIALISE_FIXED       [THE_MODEL_MAIN]":
(PID.TID 0000.0001)           User time:  0.13000000000000000
(PID.TID 0000.0001)         System time:  2.00000000000000004E-002
(PID.TID 0000.0001)     Wall clock time:  0.16087698936462402
(PID.TID 0000.0001)          No. starts:           1
(PID.TID 0000.0001)           No. stops:           1
(PID.TID 0000.0001)   Seconds in section "THE_MAIN_LOOP          [THE_MODEL_MAIN]":
(PID.TID 0000.0001)           User time:   6.7200000000000006
(PID.TID 0000.0001)         System time:  0.18000000000000002
(PID.TID 0000.0001)     Wall clock time:   6.8905990123748779
(PID.TID 0000.0001)          No. starts:           1
(PID.TID 0000.0001)           No. stops:           1
(PID.TID 0000.0001)   Seconds in section "INITIALISE_VARIA    [THE_MAIN_LOOP]":
(PID.TID 0000.0001)           User time:  5.99999999999999978E-002
(PID.TID 0000.0001)         System time:  3.00000000000000024E-002
(PID.TID 0000.0001)     Wall clock time:  8.41588973999023438E-002
(PID.TID 0000.0001)          No. starts:           1
(PID.TID 0000.0001)           No. stops:           1
(PID.TID 0000.0001)   Seconds in section "MAIN LOOP           [THE_MAIN_LOOP]":
(PID.TID 0000.0001)           User time:   6.6600000000000001
(PID.TID 0000.0001)         System time:  0.15000000000000002
(PID.TID 0000.0001)     Wall clock time:   6.8064000606536865
(PID.TID 0000.0001)          No. starts:           1
(PID.TID 0000.0001)           No. stops:           1
(PID.TID 0000.0001)   Seconds in section "FORWARD_STEP        [THE_MAIN_LOOP]":
(PID.TID 0000.0001)           User time:   6.6600000000000072
(PID.TID 0000.0001)         System time:  0.15000000000000002
(PID.TID 0000.0001)     Wall clock time:   6.8061296939849854
(PID.TID 0000.0001)          No. starts:          21
(PID.TID 0000.0001)           No. stops:          21
(PID.TID 0000.0001)   Seconds in section "DO_STATEVARS_DIAGS  [FORWARD_STEP]":
(PID.TID 0000.0001)           User time:   0.0000000000000000
(PID.TID 0000.0001)         System time:   0.0000000000000000
(PID.TID 0000.0001)     Wall clock time:  2.25591659545898438E-003
(PID.TID 0000.0001)          No. starts:          42
(PID.TID 0000.0001)           No. stops:          42
(PID.TID 0000.0001)   Seconds in section "LOAD_FIELDS_DRIVER  [FORWARD_STEP]":
(PID.TID 0000.0001)           User time:   0.0000000000000000
(PID.TID 0000.0001)         System time:   0.0000000000000000
(PID.TID 0000.0001)     Wall clock time:  1.10437870025634766E-002
(PID.TID 0000.0001)          No. starts:          21
(PID.TID 0000.0001)           No. stops:          21
(PID.TID 0000.0001)   Seconds in section "EXTERNAL_FLDS_LOAD [LOAD_FLDS_DRIVER]":
(PID.TID 0000.0001)           User time:   0.0000000000000000
(PID.TID 0000.0001)         System time:   0.0000000000000000
(PID.TID 0000.0001)     Wall clock time:  1.05240345001220703E-002
(PID.TID 0000.0001)          No. starts:          21
(PID.TID 0000.0001)           No. stops:          21
(PID.TID 0000.0001)   Seconds in section "DO_ATMOSPHERIC_PHYS [FORWARD_STEP]":
(PID.TID 0000.0001)           User time:   0.0000000000000000
(PID.TID 0000.0001)         System time:   0.0000000000000000
(PID.TID 0000.0001)     Wall clock time:  2.62737274169921875E-004
(PID.TID 0000.0001)          No. starts:          21
(PID.TID 0000.0001)           No. stops:          21
(PID.TID 0000.0001)   Seconds in section "DO_OCEANIC_PHYS     [FORWARD_STEP]":
(PID.TID 0000.0001)           User time:   1.8200000000000003
(PID.TID 0000.0001)         System time:   0.0000000000000000
(PID.TID 0000.0001)     Wall clock time:   1.8124840259552002
(PID.TID 0000.0001)          No. starts:          21
(PID.TID 0000.0001)           No. stops:          21
(PID.TID 0000.0001)   Seconds in section "KPP_CALC [DO_OCEANIC_PHYS]":
(PID.TID 0000.0001)           User time:   1.5299999999999985
(PID.TID 0000.0001)         System time:   0.0000000000000000
(PID.TID 0000.0001)     Wall clock time:   1.5233249664306641
(PID.TID 0000.0001)          No. starts:          42
(PID.TID 0000.0001)           No. stops:          42
(PID.TID 0000.0001)   Seconds in section "LONGSTEP_AVERAGE    [FORWARD_STEP]":
(PID.TID 0000.0001)           User time:  0.23999999999999932
(PID.TID 0000.0001)         System time:   0.0000000000000000
(PID.TID 0000.0001)     Wall clock time:  0.23172402381896973
(PID.TID 0000.0001)          No. starts:          21
(PID.TID 0000.0001)           No. stops:          21
(PID.TID 0000.0001)   Seconds in section "THERMODYNAMICS      [FORWARD_STEP]":
(PID.TID 0000.0001)           User time:   1.2899999999999991
(PID.TID 0000.0001)         System time:   0.0000000000000000
(PID.TID 0000.0001)     Wall clock time:   1.2996077537536621
(PID.TID 0000.0001)          No. starts:          21
(PID.TID 0000.0001)           No. stops:          21
(PID.TID 0000.0001)   Seconds in section "DYNAMICS            [FORWARD_STEP]":
(PID.TID 0000.0001)           User time:   2.1800000000000015
(PID.TID 0000.0001)         System time:   0.0000000000000000
(PID.TID 0000.0001)     Wall clock time:   2.1750621795654297
(PID.TID 0000.0001)          No. starts:          21
(PID.TID 0000.0001)           No. stops:          21
(PID.TID 0000.0001)   Seconds in section "SOLVE_FOR_PRESSURE  [FORWARD_STEP]":
(PID.TID 0000.0001)           User time:  0.23000000000000043
(PID.TID 0000.0001)         System time:   0.0000000000000000
(PID.TID 0000.0001)     Wall clock time:  0.25096893310546875
(PID.TID 0000.0001)          No. starts:          21
(PID.TID 0000.0001)           No. stops:          21
(PID.TID 0000.0001)   Seconds in section "MOM_CORRECTION_STEP [FORWARD_STEP]":
(PID.TID 0000.0001)           User time:  0.10999999999999854
(PID.TID 0000.0001)         System time:   0.0000000000000000
(PID.TID 0000.0001)     Wall clock time:  7.89916515350341797E-002
(PID.TID 0000.0001)          No. starts:          21
(PID.TID 0000.0001)           No. stops:          21
(PID.TID 0000.0001)   Seconds in section "TRC_CORRECTION_STEP [FORWARD_STEP]":
(PID.TID 0000.0001)           User time:   0.0000000000000000
(PID.TID 0000.0001)         System time:   0.0000000000000000
(PID.TID 0000.0001)     Wall clock time:  2.26981639862060547E-002
(PID.TID 0000.0001)          No. starts:          21
(PID.TID 0000.0001)           No. stops:          21
(PID.TID 0000.0001)   Seconds in section "LONGSTEP_THERMODYNAMICS      [FORWARD_STEP]":
(PID.TID 0000.0001)           User time:  0.24999999999999911
(PID.TID 0000.0001)         System time:   0.0000000000000000
(PID.TID 0000.0001)     Wall clock time:  0.24261212348937988
(PID.TID 0000.0001)          No. starts:          21
(PID.TID 0000.0001)           No. stops:          21
(PID.TID 0000.0001)   Seconds in section "LS_CORRECTION_STEP  [FORWARD_STEP]":
(PID.TID 0000.0001)           User time:   0.0000000000000000
(PID.TID 0000.0001)         System time:   0.0000000000000000
(PID.TID 0000.0001)     Wall clock time:  4.00876998901367188E-003
(PID.TID 0000.0001)          No. starts:          21
(PID.TID 0000.0001)           No. stops:          21
(PID.TID 0000.0001)   Seconds in section "BLOCKING_EXCHANGES  [FORWARD_STEP]":
(PID.TID 0000.0001)           User time:  8.00000000000009592E-002
(PID.TID 0000.0001)         System time:   0.0000000000000000
(PID.TID 0000.0001)     Wall clock time:  9.50319766998291016E-002
(PID.TID 0000.0001)          No. starts:          21
(PID.TID 0000.0001)           No. stops:          21
(PID.TID 0000.0001)   Seconds in section "DO_STATEVARS_TAVE   [FORWARD_STEP]":
(PID.TID 0000.0001)           User time:   0.0000000000000000
(PID.TID 0000.0001)         System time:   0.0000000000000000
(PID.TID 0000.0001)     Wall clock time:  2.69412994384765625E-004
(PID.TID 0000.0001)          No. starts:          21
(PID.TID 0000.0001)           No. stops:          21
(PID.TID 0000.0001)   Seconds in section "MONITOR             [FORWARD_STEP]":
(PID.TID 0000.0001)           User time:  0.34000000000000163
(PID.TID 0000.0001)         System time:   0.0000000000000000
(PID.TID 0000.0001)     Wall clock time:  0.31855797767639160
(PID.TID 0000.0001)          No. starts:          21
(PID.TID 0000.0001)           No. stops:          21
(PID.TID 0000.0001)   Seconds in section "DO_THE_MODEL_IO     [FORWARD_STEP]":
(PID.TID 0000.0001)           User time:  9.99999999999987566E-002
(PID.TID 0000.0001)         System time:  0.10000000000000001
(PID.TID 0000.0001)     Wall clock time:  0.19106388092041016
(PID.TID 0000.0001)          No. starts:          21
(PID.TID 0000.0001)           No. stops:          21
(PID.TID 0000.0001)   Seconds in section "DO_WRITE_PICKUP     [FORWARD_STEP]":
(PID.TID 0000.0001)           User time:  2.00000000000004619E-002
(PID.TID 0000.0001)         System time:  5.00000000000000167E-002
(PID.TID 0000.0001)     Wall clock time:  6.42788410186767578E-002
(PID.TID 0000.0001)          No. starts:          21
(PID.TID 0000.0001)           No. stops:          21
(PID.TID 0000.0001) // ======================================================
(PID.TID 0000.0001) // Tile <-> Tile communication statistics
(PID.TID 0000.0001) // ======================================================
(PID.TID 0000.0001) // o Tile number: 000001
(PID.TID 0000.0001) //         No. X exchanges =              0
(PID.TID 0000.0001) //            Max. X spins =              0
(PID.TID 0000.0001) //            Min. X spins =     1000000000
(PID.TID 0000.0001) //          Total. X spins =              0
(PID.TID 0000.0001) //            Avg. X spins =       0.00E+00
(PID.TID 0000.0001) //         No. Y exchanges =              0
(PID.TID 0000.0001) //            Max. Y spins =              0
(PID.TID 0000.0001) //            Min. Y spins =     1000000000
(PID.TID 0000.0001) //          Total. Y spins =              0
(PID.TID 0000.0001) //            Avg. Y spins =       0.00E+00
(PID.TID 0000.0001) // o Tile number: 000002
(PID.TID 0000.0001) //         No. X exchanges =              0
(PID.TID 0000.0001) //            Max. X spins =              0
(PID.TID 0000.0001) //            Min. X spins =     1000000000
(PID.TID 0000.0001) //          Total. X spins =              0
(PID.TID 0000.0001) //            Avg. X spins =       0.00E+00
(PID.TID 0000.0001) //         No. Y exchanges =              0
(PID.TID 0000.0001) //            Max. Y spins =              0
(PID.TID 0000.0001) //            Min. Y spins =     1000000000
(PID.TID 0000.0001) //          Total. Y spins =              0
(PID.TID 0000.0001) //            Avg. Y spins =       0.00E+00
(PID.TID 0000.0001) // o Thread number: 000001
(PID.TID 0000.0001) //            No. barriers =          21560
(PID.TID 0000.0001) //      Max. barrier spins =              1
(PID.TID 0000.0001) //      Min. barrier spins =              1
(PID.TID 0000.0001) //     Total barrier spins =          21560
(PID.TID 0000.0001) //      Avg. barrier spins =       1.00E+00
