(PID.TID 0000.0001) 
(PID.TID 0000.0001) // ======================================================
(PID.TID 0000.0001) //                      MITgcm UV
(PID.TID 0000.0001) //                      =========
(PID.TID 0000.0001) // ======================================================
(PID.TID 0000.0001) // execution environment starting up...
(PID.TID 0000.0001) // Run starting Wed Apr  1 14:19:48 1998
(PID.TID 0000.0001) // on melville.lcs.mit.edu
(PID.TID 0000.0001) // account cnh
(PID.TID 0000.0001) // MITgcm UV Release: $Name:  $
(PID.TID 0000.0001) 
(PID.TID 0000.0001) // =======================================================
(PID.TID 0000.0001) // Execution Environment parameter file "eedata"
(PID.TID 0000.0001) // =======================================================
(PID.TID 0000.0001) ># Example "eedata" file
(PID.TID 0000.0001) ># Lines beginning "#" are comments
(PID.TID 0000.0001) ># nTx - No. threads per process in X
(PID.TID 0000.0001) ># nTy - No. threads per process in Y
(PID.TID 0000.0001) > &EEPARMS
(PID.TID 0000.0001) > nTx=1,nTy=1
(PID.TID 0000.0001) > &
(PID.TID 0000.0001) ># Note: Some systems use & as the
(PID.TID 0000.0001) ># namelist terminator. Other systems
(PID.TID 0000.0001) ># use a / character (as shown here).
(PID.TID 0000.0001) 
(PID.TID 0000.0001) // =======================================================
(PID.TID 0000.0001) // Computational Grid Specification ( see files "SIZE.h" )
(PID.TID 0000.0001) //                                  ( and "eedata"       )
(PID.TID 0000.0001) // =======================================================
(PID.TID 0000.0001)      nPx =    1 ; /* No. processes in X */
(PID.TID 0000.0001)      nPy =    1 ; /* No. processes in Y */
(PID.TID 0000.0001)      nSx =    1 ; /* No. tiles in X per process */
(PID.TID 0000.0001)      nSy =    1 ; /* No. tiles in Y per process */
(PID.TID 0000.0001)      sNx =   20 ; /* Tile size in X */
(PID.TID 0000.0001)      sNy =   16 ; /* Tile size in Y */
(PID.TID 0000.0001)      OLx =    4 ; /* Tile overlap distance in X */
(PID.TID 0000.0001)      OLy =    4 ; /* Tile overlap distance in Y */
(PID.TID 0000.0001)      nTx =    1 ; /* No. threads in X per process */
(PID.TID 0000.0001)      nTy =    1 ; /* No. threads in Y per process */
(PID.TID 0000.0001)       Nr =   23 ; /* No. levels in the vertical   */
(PID.TID 0000.0001)       nX =   20 ; /* Total domain size in X ( = nPx*nSx*sNx ) */
(PID.TID 0000.0001)       nY =   16 ; /* Total domain size in Y ( = nPy*nSy*sNy ) */
(PID.TID 0000.0001)   nTiles =    1 ; /* Total no. tiles per process ( = nSx*nSy ) */
(PID.TID 0000.0001)   nProcs =    1 ; /* Total no. processes ( = nPx*nPy ) */
(PID.TID 0000.0001) nThreads =    1 ; /* Total no. threads per process ( = nTx*nTy ) */
(PID.TID 0000.0001) usingMPI =    F ; /* Flag used to control whether MPI is in use */
(PID.TID 0000.0001)                   /*  note: To execute a program with MPI calls */
(PID.TID 0000.0001)                   /*  it must be launched appropriately e.g     */
(PID.TID 0000.0001)                   /*  "mpirun -np 64 ......"                    */
(PID.TID 0000.0001) 
(PID.TID 0000.0001) // ======================================================
(PID.TID 0000.0001) // Mapping of tiles to threads
(PID.TID 0000.0001) // ======================================================
(PID.TID 0000.0001) // -o- Thread   1, tiles (   1:   1,   1:   1)
(PID.TID 0000.0001) 
(PID.TID 0000.0001) // ======================================================
(PID.TID 0000.0001) // Tile <-> Tile connectvity table
(PID.TID 0000.0001) // ======================================================
(PID.TID 0000.0001) // Tile number: 000001 (process no. = 000001)
(PID.TID 0000.0001) //        WEST: Tile = 000001, Process = 000001, Comm = put
(PID.TID 0000.0001) //                bi = 000001, bj = 000001
(PID.TID 0000.0001) //        EAST: Tile = 000001, Process = 000001, Comm = put
(PID.TID 0000.0001) //                bi = 000001, bj = 000001
(PID.TID 0000.0001) //       SOUTH: Tile = 000001, Process = 000001, Comm = put
(PID.TID 0000.0001) //                bi = 000001, bj = 000001
(PID.TID 0000.0001) //       NORTH: Tile = 000001, Process = 000001, Comm = put
(PID.TID 0000.0001) //                bi = 000001, bj = 000001
(PID.TID 0000.0001) 
(PID.TID 0000.0001) // =======================================================
(PID.TID 0000.0001) // Model parameter file "data"
(PID.TID 0000.0001) // =======================================================
(PID.TID 0000.0001) ># ====================
(PID.TID 0000.0001) ># | Model parameters |
(PID.TID 0000.0001) ># ====================
(PID.TID 0000.0001) >#
(PID.TID 0000.0001) ># Continuous equation parameters
(PID.TID 0000.0001) >#
(PID.TID 0000.0001) >#   tRef            - Reference vertical potential temperature          (deg C)
(PID.TID 0000.0001) >#   sRef            - Reference vertical salinity                         (PSU)
(PID.TID 0000.0001) >#   viscAh          - Horizontal eddy viscosity coefficient             (m^2/s)
(PID.TID 0000.0001) >#   viscAz          - Vertical eddy viscosity coefficient               (m^2/s)
(PID.TID 0000.0001) >#   diffKhT         - Horizontal temperature diffusivity                (m^2/s)
(PID.TID 0000.0001) >#   diffKzT         - Vertical temperature diffusivity                  (m^2/s)
(PID.TID 0000.0001) >#   diffKhS         - Horizontal salt diffusivity                       (m^2/s)
(PID.TID 0000.0001) >#   diffKzS         - Vertical salt diffusivity                         (m^2/s)
(PID.TID 0000.0001) >#   f0              - Reference coriolis parameter,
(PID.TID 0000.0001) >#                     south edge of f on beta plane                       (1/s)
(PID.TID 0000.0001) >#   beta            - df/dy                                         (s^-1.m^-1)
(PID.TID 0000.0001) >#   tAlpha          - Linear EOS thermal expansion coefficient           (1/oC)
(PID.TID 0000.0001) >#   sBeta           - Linear EOS haline contraction coefficient         (1/ppt)
(PID.TID 0000.0001) >#   gravity         - Acceleration due to gravity                       (m/s^2)
(PID.TID 0000.0001) >#   gBaro           - Accel. due to gravity used in barotropic equation (m/s^2)
(PID.TID 0000.0001) >#   rigidLid        - Set to true to use rigid lid
(PID.TID 0000.0001) >#   implicitFreeSurface - Set to true to use implicit free surface
(PID.TID 0000.0001) >#   eosType         - Flag for linear or polynomial equation of state
(PID.TID 0000.0001) >#   GMkbackground   - background value of GM/Redi coefficient
(PID.TID 0000.0001) >#   momAdvection    - On/Off flag for momentum self transport
(PID.TID 0000.0001) >#   momViscosity    - On/Off flag for momentum mixing
(PID.TID 0000.0001) >#
(PID.TID 0000.0001) > &PARM01
(PID.TID 0000.0001) > viscAz             = 1.E-3,
(PID.TID 0000.0001) > diffKzT            = 1.E-5,
(PID.TID 0000.0001) > diffKzS            = 1.E-5,
(PID.TID 0000.0001) > viscAh             = 5.0E4,
(PID.TID 0000.0001) > viscA4             = 5.e12,
(PID.TID 0000.0001) > diffKhT            = 1.0E3,
(PID.TID 0000.0001) > diffKhS            = 1.0E3,
(PID.TID 0000.0001) > f0                 = 1.e-4,
(PID.TID 0000.0001) > beta               = 1.E-11,
(PID.TID 0000.0001) > tAlpha             = 2.E-4,
(PID.TID 0000.0001) > sBeta              = 7.4E-4,
(PID.TID 0000.0001) > gravity            = 9.81,
(PID.TID 0000.0001) > gBaro              = 9.81,
(PID.TID 0000.0001) > rigidLid           = .FALSE.,
(PID.TID 0000.0001) > implicitFreeSurface= .TRUE.,
(PID.TID 0000.0001) > implicitDiffusion  = .TRUE.,
(PID.TID 0000.0001) > eosType            = 'POLY3',
(PID.TID 0000.0001) > momAdvection       = .TRUE.,
(PID.TID 0000.0001) > momViscosity       = .TRUE.,
(PID.TID 0000.0001) > implicitDiffusion  = .TRUE.,
(PID.TID 0000.0001) > implicitViscosity  = .TRUE.,
(PID.TID 0000.0001) > no_slip_bottom     = .TRUE.,
(PID.TID 0000.0001) > no_slip_sides      = .FALSE.,
(PID.TID 0000.0001) > readBinaryPrec     = 32,
(PID.TID 0000.0001) > &
(PID.TID 0000.0001) >
(PID.TID 0000.0001) ># Elliptic solver parameters
(PID.TID 0000.0001) >#
(PID.TID 0000.0001) >#   cg2dMaxIters       - Maximum number of 2d solver iterations
(PID.TID 0000.0001) >#   cg2dTargetResidual - Solver target residual
(PID.TID 0000.0001) >#
(PID.TID 0000.0001) > &PARM02
(PID.TID 0000.0001) > cg2dMaxIters       = 1000,
(PID.TID 0000.0001) > cg2dTargetResidual = 1.E-13,
(PID.TID 0000.0001) > &
(PID.TID 0000.0001) >
(PID.TID 0000.0001) ># Time stepping parameters
(PID.TID 0000.0001) >#
(PID.TID 0000.0001) >#   startTime         - Integration starting time                (s)
(PID.TID 0000.0001) >#   endTime           - Integration ending time                  (s)
(PID.TID 0000.0001) >#   tauCD             - CD scheme coupling timescale             (s)
(PID.TID 0000.0001) >#   deltaTMom         - Timestep for momemtum equations          (s)
(PID.TID 0000.0001) >#   deltaTtracer      - Tracer timestep                          (s)
(PID.TID 0000.0001) >#   deltaTClock       - Timestep used as model "clock"           (s)
(PID.TID 0000.0001) >#   abEps             - Adams-Bashforth stabilising factor
(PID.TID 0000.0001) >#   pChkPtFreq        - Frequency of permanent check pointing    (s)
(PID.TID 0000.0001) >#   chkPtFreq         - Frequency of rolling check pointing      (s)
(PID.TID 0000.0001) >#   dumpFreq          - Frequency at which model state is stored (s)
(PID.TID 0000.0001) >#   tauThetaClimRelax - Relaxation to climatology time scale     (s)
(PID.TID 0000.0001) >#   tauSaltClimRelax  - Relaxation to climatology time scale     (s)
(PID.TID 0000.0001) >#
(PID.TID 0000.0001) > &PARM03
(PID.TID 0000.0001) > startTime  = 0.0,
(PID.TID 0000.0001) > endTime    = 72000.0,
(PID.TID 0000.0001) > deltaTmom  = 3600.0,
(PID.TID 0000.0001) > TauCD      = 172800.
(PID.TID 0000.0001) > cAdjFreq   = 0.,
(PID.TID 0000.0001) > abEps      = 0.1,
(PID.TID 0000.0001) > pChkptFreq = 0.0,
(PID.TID 0000.0001) > chkptFreq  = 0.0,
(PID.TID 0000.0001) > dumpFreq   = 864000.0,
(PID.TID 0000.0001) > tauSaltClimRelax = 2592000.0,
(PID.TID 0000.0001) > tauThetaClimRelax = 2592000.0,
(PID.TID 0000.0001) > periodicExternalForcing = .TRUE.,
(PID.TID 0000.0001) > externForcingPeriod = 43200.0,
(PID.TID 0000.0001) > externForcingCycle = 2764800.0,
(PID.TID 0000.0001) > monitorFreq=1.,
(PID.TID 0000.0001) > &
(PID.TID 0000.0001) >
(PID.TID 0000.0001) ># Gridding parameters
(PID.TID 0000.0001) >#
(PID.TID 0000.0001) >#   usingSphericalPolarGrid - On/Off flag for spherical polar coordinates
(PID.TID 0000.0001) >#   usingCartesianGrid      - On/Off flag for selecting cartesian coordinates
(PID.TID 0000.0001) >#   delX                    - Zonal grid spacing         (degrees)
(PID.TID 0000.0001) >#   delY                    - Meridional grid spacing    (degrees)
(PID.TID 0000.0001) >#   delZ                    - Vertical grid spacing      (m)
(PID.TID 0000.0001) >#   phiMin                  - Southern boundary latitude (degrees)
(PID.TID 0000.0001) >#
(PID.TID 0000.0001) > &PARM04
(PID.TID 0000.0001) > usingCartesianGrid      = .FALSE.,
(PID.TID 0000.0001) > usingSphericalPolarGrid = .TRUE.,
(PID.TID 0000.0001) > delX   = 20*2.,
(PID.TID 0000.0001) > delY   = 16*2.,
(PID.TID 0000.0001) > delZ= 10., 10., 15., 20., 20., 25., 35., 50., 75.,
(PID.TID 0000.0001) >       100., 150., 200., 275., 350., 415., 450.,
(PID.TID 0000.0001) >       500., 500., 500., 500., 500., 500., 500.
(PID.TID 0000.0001) > phiMin = 10.,
(PID.TID 0000.0001) > thetaMin= -42.
(PID.TID 0000.0001) > &
(PID.TID 0000.0001) >
(PID.TID 0000.0001) ># Input datasets
(PID.TID 0000.0001) >#
(PID.TID 0000.0001) >#   bathyFile       - File containing bathymetry
(PID.TID 0000.0001) >#   hydrogThetaFile - File containing initial potential temperature data
(PID.TID 0000.0001) >#   hydrogSaltFile  - File containing initial salinity data
(PID.TID 0000.0001) >#   zonalWindFile   - File containing zonal wind data
(PID.TID 0000.0001) >#   meridWindFile   - File containing meridional wind data
(PID.TID 0000.0001) >#   thetaClimFile   - File containing theta climatology used for relaxation
(PID.TID 0000.0001) >#   saltClimFile    - File containing salt climatology used for relaxation
(PID.TID 0000.0001) >#
(PID.TID 0000.0001) > &PARM05
(PID.TID 0000.0001) > bathyFile       = 'kf_topog',
(PID.TID 0000.0001) > hydrogThetaFile = 'kf_climtheta',
(PID.TID 0000.0001) > hydrogSaltFile  = 'kf_climsalt',
(PID.TID 0000.0001) > zonalWindFile   = 'kf_fu',
(PID.TID 0000.0001) > meridWindFile   = 'kf_fv',
(PID.TID 0000.0001) > thetaClimFile   = 'kf_sst',
(PID.TID 0000.0001) > saltClimFile    = 'kf_sss',
(PID.TID 0000.0001) > surfQFile       = 'kf_qnet',
(PID.TID 0000.0001) > EmPmRFile       = 'kf_empmr',
(PID.TID 0000.0001) > surfQswFile     = 'kf_sw',
(PID.TID 0000.0001) > &
(PID.TID 0000.0001) 
(PID.TID 0000.0001) S/R INI_PARMS ; read PARM01 : OK
(PID.TID 0000.0001) S/R INI_PARMS ; read PARM02 : OK
(PID.TID 0000.0001) S/R INI_PARMS ; read PARM03 : OK
(PID.TID 0000.0001) S/R INI_PARMS ; read PARM04 : OK
(PID.TID 0000.0001) S/R INI_PARMS ; read PARM05 : OK
(PID.TID 0000.0001) %MON XC_max                       =  -3.0000000000000E+00
(PID.TID 0000.0001) %MON XC_min                       =  -4.1000000000000E+01
(PID.TID 0000.0001) %MON XC_mean                      =  -2.2000000000000E+01
(PID.TID 0000.0001) %MON XC_sd                        =   1.1532562594671E+01
(PID.TID 0000.0001) %MON XG_max                       =  -4.0000000000000E+00
(PID.TID 0000.0001) %MON XG_min                       =  -4.2000000000000E+01
(PID.TID 0000.0001) %MON XG_mean                      =  -2.3000000000000E+01
(PID.TID 0000.0001) %MON XG_sd                        =   1.1532562594671E+01
(PID.TID 0000.0001) %MON DXC_max                      =   2.1826966005878E+05
(PID.TID 0000.0001) %MON DXC_min                      =   1.6781340848749E+05
(PID.TID 0000.0001) %MON DXC_mean                     =   1.9727395728441E+05
(PID.TID 0000.0001) %MON DXC_sd                       =   1.5731168072696E+04
(PID.TID 0000.0001) %MON DXF_max                      =   2.1826966005878E+05
(PID.TID 0000.0001) %MON DXF_min                      =   1.6781340848749E+05
(PID.TID 0000.0001) %MON DXF_mean                     =   1.9727395728441E+05
(PID.TID 0000.0001) %MON DXF_sd                       =   1.5731168072696E+04
(PID.TID 0000.0001) %MON DXG_max                      =   2.1897687543479E+05
(PID.TID 0000.0001) %MON DXG_min                      =   1.7033377132268E+05
(PID.TID 0000.0001) %MON DXG_mean                     =   1.9892312861058E+05
(PID.TID 0000.0001) %MON DXG_sd                       =   1.5180938630473E+04
(PID.TID 0000.0001) %MON DXV_max                      =   2.1897687543479E+05
(PID.TID 0000.0001) %MON DXV_min                      =   1.7033377132268E+05
(PID.TID 0000.0001) %MON DXV_mean                     =   1.9892312861058E+05
(PID.TID 0000.0001) %MON DXV_sd                       =   1.5180938630473E+04
(PID.TID 0000.0001) %MON YC_max                       =   4.1000000000000E+01
(PID.TID 0000.0001) %MON YC_min                       =   1.1000000000000E+01
(PID.TID 0000.0001) %MON YC_mean                      =   2.6000000000000E+01
(PID.TID 0000.0001) %MON YC_sd                        =   9.2195444572929E+00
(PID.TID 0000.0001) %MON YG_max                       =   4.0000000000000E+01
(PID.TID 0000.0001) %MON YG_min                       =   1.0000000000000E+01
(PID.TID 0000.0001) %MON YG_mean                      =   2.5000000000000E+01
(PID.TID 0000.0001) %MON YG_sd                        =   9.2195444572929E+00
(PID.TID 0000.0001) %MON DYC_max                      =   2.2235494670408E+05
(PID.TID 0000.0001) %MON DYC_min                      =   2.2235494670408E+05
(PID.TID 0000.0001) %MON DYC_mean                     =   2.2235494670408E+05
(PID.TID 0000.0001) %MON DYC_sd                       =   1.1641532182693E-09
(PID.TID 0000.0001) %MON DYF_max                      =   2.2235494670408E+05
(PID.TID 0000.0001) %MON DYF_min                      =   2.2235494670408E+05
(PID.TID 0000.0001) %MON DYF_mean                     =   2.2235494670408E+05
(PID.TID 0000.0001) %MON DYF_sd                       =   1.1641532182693E-09
(PID.TID 0000.0001) %MON DYG_max                      =   2.2235494670408E+05
(PID.TID 0000.0001) %MON DYG_min                      =   2.2235494670408E+05
(PID.TID 0000.0001) %MON DYG_mean                     =   2.2235494670408E+05
(PID.TID 0000.0001) %MON DYG_sd                       =   1.1641532182693E-09
(PID.TID 0000.0001) %MON DYU_max                      =   2.2235494670408E+05
(PID.TID 0000.0001) %MON DYU_min                      =   2.2235494670408E+05
(PID.TID 0000.0001) %MON DYU_mean                     =   2.2235494670408E+05
(PID.TID 0000.0001) %MON DYU_sd                       =   1.1641532182693E-09
(PID.TID 0000.0001) %MON RA_max                       =   4.8530874650285E+10
(PID.TID 0000.0001) %MON RA_min                       =   3.7312247106402E+10
(PID.TID 0000.0001) %MON RA_mean                      =   4.3862613292919E+10
(PID.TID 0000.0001) %MON RA_sd                        =   3.4977254540690E+09
(PID.TID 0000.0001) %MON RAW_max                      =   4.8530874650285E+10
(PID.TID 0000.0001) %MON RAW_min                      =   3.7312247106402E+10
(PID.TID 0000.0001) %MON RAW_mean                     =   4.3862613292919E+10
(PID.TID 0000.0001) %MON RAW_sd                       =   3.4977254540690E+09
(PID.TID 0000.0001) %MON RAS_max                      =   4.8688119503989E+10
(PID.TID 0000.0001) %MON RAS_min                      =   3.7872633798691E+10
(PID.TID 0000.0001) %MON RAS_mean                     =   4.4229296078267E+10
(PID.TID 0000.0001) %MON RAS_sd                       =   3.3753854271397E+09
(PID.TID 0000.0001) %MON RAZ_max                      =   4.8688119503989E+10
(PID.TID 0000.0001) %MON RAZ_min                      =   3.7872633798691E+10
(PID.TID 0000.0001) %MON RAZ_mean                     =   4.4229296078267E+10
(PID.TID 0000.0001) %MON RAZ_sd                       =   3.3753854271397E+09
(PID.TID 0000.0001)  MDSREADFIELD: opening global file: kf_topog
(PID.TID 0000.0001) // =======================================================
(PID.TID 0000.0001) // Field Model R_low (ini_masks_etc) at iteration          1
(PID.TID 0000.0001) // CMIN =         -5.200000000000000E+03
(PID.TID 0000.0001) // CMAX =         -3.600000000000000E+02
(PID.TID 0000.0001) // CINT =          1.792592592592593E+02
(PID.TID 0000.0001) // SYMBOLS (CMIN->CMAX): -abcdefghijklmnopqrstuvwxyz+
(PID.TID 0000.0001) //                  0.0: .
(PID.TID 0000.0001) // RANGE I (Lo:Hi:Step):(  -3:  24:   1)
(PID.TID 0000.0001) // RANGE J (Lo:Hi:Step):(  20:  -3:  -1)
(PID.TID 0000.0001) // RANGE K (Lo:Hi:Step):(   1:   1:   1)
(PID.TID 0000.0001) // =======================================================
(PID.TID 0000.0001) K =   1
(PID.TID 0000.0001) //                I=6       I=16
(PID.TID 0000.0001) // |--J--|***012345|789012345|78901234
(PID.TID 0000.0001) //     20 .....cc-----cfkhkz.......cc-
(PID.TID 0000.0001) //     19 .....c-------cccfy.......c--
(PID.TID 0000.0001) //     18 .....hcc------ccfx.......hcc
(PID.TID 0000.0001) //     17 ............................
(PID.TID 0000.0001) //     16 ............................
(PID.TID 0000.0001) //     15 hv+..fhknsqknnff-ckhhv+..fhk
(PID.TID 0000.0001) //     14 fhx..hknnnnkhcc-chhhfhx..hkn
(PID.TID 0000.0001) //     13 fz...knnkhknf--chkfffz...knn
(PID.TID 0000.0001) //     12 q....nkhfffhc--cffhnq....nkh
(PID.TID 0000.0001) //     11 +....khfccccc-ccfkkv+....khf
(PID.TID 0000.0001) //     10 .....hcc---cc-cfhks......hcc
(PID.TID 0000.0001) //      9 .....fc-------cfkq.......fc-
(PID.TID 0000.0001) //      8 .....c-------ccfkx.......c--
(PID.TID 0000.0001) //      7 .....c---cfcccfhk+.......c--
(PID.TID 0000.0001) //      6 .....c---cccffhknv.......c--
(PID.TID 0000.0001) //      5 .....c--ccccfkkkkq.......c--
(PID.TID 0000.0001) //      4 .....cc-----cfkhkz.......cc-
(PID.TID 0000.0001) //      3 .....c-------cccfy.......c--
(PID.TID 0000.0001) //      2 .....hcc------ccfx.......hcc
(PID.TID 0000.0001) //      1 ............................
(PID.TID 0000.0001) //      0 ............................
(PID.TID 0000.0001) //     -1 hv+..fhknsqknnff-ckhhv+..fhk
(PID.TID 0000.0001) //     -2 fhx..hknnnnkhcc-chhhfhx..hkn
(PID.TID 0000.0001) //     -3 fz...knnkhknf--chkfffz...knn
(PID.TID 0000.0001) // =======================================================
(PID.TID 0000.0001) // END OF FIELD                                          =
(PID.TID 0000.0001) // =======================================================
(PID.TID 0000.0001) 
(PID.TID 0000.0001) // =======================================================
(PID.TID 0000.0001) // Field Model Ro_surf (ini_masks_etc) at iteration          1
(PID.TID 0000.0001) // CMIN =          1.000000000000000E+32
(PID.TID 0000.0001) // CMAX =         -1.000000000000000E+32
(PID.TID 0000.0001) // CINT =          0.000000000000000E+00
(PID.TID 0000.0001) // SYMBOLS (CMIN->CMAX): -abcdefghijklmnopqrstuvwxyz+
(PID.TID 0000.0001) //                  0.0: .
(PID.TID 0000.0001) // RANGE I (Lo:Hi:Step):(  -3:  24:   1)
(PID.TID 0000.0001) // RANGE J (Lo:Hi:Step):(  20:  -3:  -1)
(PID.TID 0000.0001) // RANGE K (Lo:Hi:Step):(   1:   1:   1)
(PID.TID 0000.0001) // =======================================================
(PID.TID 0000.0001) K =   1
(PID.TID 0000.0001) //                I=6       I=16
(PID.TID 0000.0001) // |--J--|***012345|789012345|78901234
(PID.TID 0000.0001) //     20 ............................
(PID.TID 0000.0001) //     19 ............................
(PID.TID 0000.0001) //     18 ............................
(PID.TID 0000.0001) //     17 ............................
(PID.TID 0000.0001) //     16 ............................
(PID.TID 0000.0001) //     15 ............................
(PID.TID 0000.0001) //     14 ............................
(PID.TID 0000.0001) //     13 ............................
(PID.TID 0000.0001) //     12 ............................
(PID.TID 0000.0001) //     11 ............................
(PID.TID 0000.0001) //     10 ............................
(PID.TID 0000.0001) //      9 ............................
(PID.TID 0000.0001) //      8 ............................
(PID.TID 0000.0001) //      7 ............................
(PID.TID 0000.0001) //      6 ............................
(PID.TID 0000.0001) //      5 ............................
(PID.TID 0000.0001) //      4 ............................
(PID.TID 0000.0001) //      3 ............................
(PID.TID 0000.0001) //      2 ............................
(PID.TID 0000.0001) //      1 ............................
(PID.TID 0000.0001) //      0 ............................
(PID.TID 0000.0001) //     -1 ............................
(PID.TID 0000.0001) //     -2 ............................
(PID.TID 0000.0001) //     -3 ............................
(PID.TID 0000.0001) // =======================================================
(PID.TID 0000.0001) // END OF FIELD                                          =
(PID.TID 0000.0001) // =======================================================
(PID.TID 0000.0001) 
(PID.TID 0000.0001) // =======================================================
(PID.TID 0000.0001) // Field hFacC at iteration          1
(PID.TID 0000.0001) // CMIN =          1.000000000000000E+00
(PID.TID 0000.0001) // CMAX =          1.000000000000000E+00
(PID.TID 0000.0001) // CINT =          0.000000000000000E+00
(PID.TID 0000.0001) // SYMBOLS (CMIN->CMAX): -abcdefghijklmnopqrstuvwxyz+
(PID.TID 0000.0001) //                  0.0: .
(PID.TID 0000.0001) // RANGE I (Lo:Hi:Step):(  -3:  24:   1)
(PID.TID 0000.0001) // RANGE J (Lo:Hi:Step):(  20:  -3:  -1)
(PID.TID 0000.0001) // RANGE K (Lo:Hi:Step):(   1:   1:   1)
(PID.TID 0000.0001) // =======================================================
(PID.TID 0000.0001) K =   1
(PID.TID 0000.0001) //                I=6       I=16
(PID.TID 0000.0001) // |--J--|***012345|789012345|78901234
(PID.TID 0000.0001) //     20 .....-------------.......---
(PID.TID 0000.0001) //     19 .....-------------.......---
(PID.TID 0000.0001) //     18 .....-------------.......---
(PID.TID 0000.0001) //     17 ............................
(PID.TID 0000.0001) //     16 ............................
(PID.TID 0000.0001) //     15 ---..------------------..---
(PID.TID 0000.0001) //     14 ---..------------------..---
(PID.TID 0000.0001) //     13 --...-----------------...---
(PID.TID 0000.0001) //     12 -....----------------....---
(PID.TID 0000.0001) //     11 -....----------------....---
(PID.TID 0000.0001) //     10 .....--------------......---
(PID.TID 0000.0001) //      9 .....-------------.......---
(PID.TID 0000.0001) //      8 .....-------------.......---
(PID.TID 0000.0001) //      7 .....-------------.......---
(PID.TID 0000.0001) //      6 .....-------------.......---
(PID.TID 0000.0001) //      5 .....-------------.......---
(PID.TID 0000.0001) //      4 .....-------------.......---
(PID.TID 0000.0001) //      3 .....-------------.......---
(PID.TID 0000.0001) //      2 .....-------------.......---
(PID.TID 0000.0001) //      1 ............................
(PID.TID 0000.0001) //      0 ............................
(PID.TID 0000.0001) //     -1 ---..------------------..---
(PID.TID 0000.0001) //     -2 ---..------------------..---
(PID.TID 0000.0001) //     -3 --...-----------------...---
(PID.TID 0000.0001) // =======================================================
(PID.TID 0000.0001) // END OF FIELD                                          =
(PID.TID 0000.0001) // =======================================================
(PID.TID 0000.0001) 
(PID.TID 0000.0001) // =======================================================
(PID.TID 0000.0001) // Field hFacW at iteration          1
(PID.TID 0000.0001) // CMIN =          1.000000000000000E+00
(PID.TID 0000.0001) // CMAX =          1.000000000000000E+00
(PID.TID 0000.0001) // CINT =          0.000000000000000E+00
(PID.TID 0000.0001) // SYMBOLS (CMIN->CMAX): -abcdefghijklmnopqrstuvwxyz+
(PID.TID 0000.0001) //                  0.0: .
(PID.TID 0000.0001) // RANGE I (Lo:Hi:Step):(  -3:  24:   1)
(PID.TID 0000.0001) // RANGE J (Lo:Hi:Step):(  20:  -3:  -1)
(PID.TID 0000.0001) // RANGE K (Lo:Hi:Step):(   1:   1:   1)
(PID.TID 0000.0001) // =======================================================
(PID.TID 0000.0001) K =   1
(PID.TID 0000.0001) //                I=6       I=16
(PID.TID 0000.0001) // |--J--|***012345|789012345|78901234
(PID.TID 0000.0001) //     20 ......------------........--
(PID.TID 0000.0001) //     19 ......------------........--
(PID.TID 0000.0001) //     18 ......------------........--
(PID.TID 0000.0001) //     17 ............................
(PID.TID 0000.0001) //     16 ............................
(PID.TID 0000.0001) //     15 ---...-----------------...--
(PID.TID 0000.0001) //     14 ---...-----------------...--
(PID.TID 0000.0001) //     13 --....----------------....--
(PID.TID 0000.0001) //     12 -.....---------------.....--
(PID.TID 0000.0001) //     11 -.....---------------.....--
(PID.TID 0000.0001) //     10 ......-------------.......--
(PID.TID 0000.0001) //      9 ......------------........--
(PID.TID 0000.0001) //      8 ......------------........--
(PID.TID 0000.0001) //      7 ......------------........--
(PID.TID 0000.0001) //      6 ......------------........--
(PID.TID 0000.0001) //      5 ......------------........--
(PID.TID 0000.0001) //      4 ......------------........--
(PID.TID 0000.0001) //      3 ......------------........--
(PID.TID 0000.0001) //      2 ......------------........--
(PID.TID 0000.0001) //      1 ............................
(PID.TID 0000.0001) //      0 ............................
(PID.TID 0000.0001) //     -1 ---...-----------------...--
(PID.TID 0000.0001) //     -2 ---...-----------------...--
(PID.TID 0000.0001) //     -3 --....----------------....--
(PID.TID 0000.0001) // =======================================================
(PID.TID 0000.0001) // END OF FIELD                                          =
(PID.TID 0000.0001) // =======================================================
(PID.TID 0000.0001) 
(PID.TID 0000.0001) // =======================================================
(PID.TID 0000.0001) // Field hFacS at iteration          1
(PID.TID 0000.0001) // CMIN =          1.000000000000000E+00
(PID.TID 0000.0001) // CMAX =          1.000000000000000E+00
(PID.TID 0000.0001) // CINT =          0.000000000000000E+00
(PID.TID 0000.0001) // SYMBOLS (CMIN->CMAX): -abcdefghijklmnopqrstuvwxyz+
(PID.TID 0000.0001) //                  0.0: .
(PID.TID 0000.0001) // RANGE I (Lo:Hi:Step):(  -3:  24:   1)
(PID.TID 0000.0001) // RANGE J (Lo:Hi:Step):(  20:  -3:  -1)
(PID.TID 0000.0001) // RANGE K (Lo:Hi:Step):(   1:   1:   1)
(PID.TID 0000.0001) // =======================================================
(PID.TID 0000.0001) K =   1
(PID.TID 0000.0001) //                I=6       I=16
(PID.TID 0000.0001) // |--J--|***012345|789012345|78901234
(PID.TID 0000.0001) //     20 .....-------------.......---
(PID.TID 0000.0001) //     19 .....-------------.......---
(PID.TID 0000.0001) //     18 ............................
(PID.TID 0000.0001) //     17 ............................
(PID.TID 0000.0001) //     16 ............................
(PID.TID 0000.0001) //     15 ---..------------------..---
(PID.TID 0000.0001) //     14 --...-----------------...---
(PID.TID 0000.0001) //     13 -....----------------....---
(PID.TID 0000.0001) //     12 -....----------------....---
(PID.TID 0000.0001) //     11 .....--------------......---
(PID.TID 0000.0001) //     10 .....-------------.......---
(PID.TID 0000.0001) //      9 .....-------------.......---
(PID.TID 0000.0001) //      8 .....-------------.......---
(PID.TID 0000.0001) //      7 .....-------------.......---
(PID.TID 0000.0001) //      6 .....-------------.......---
(PID.TID 0000.0001) //      5 .....-------------.......---
(PID.TID 0000.0001) //      4 .....-------------.......---
(PID.TID 0000.0001) //      3 .....-------------.......---
(PID.TID 0000.0001) //      2 ............................
(PID.TID 0000.0001) //      1 ............................
(PID.TID 0000.0001) //      0 ............................
(PID.TID 0000.0001) //     -1 ---..------------------..---
(PID.TID 0000.0001) //     -2 --...-----------------...---
(PID.TID 0000.0001) //     -3 -....----------------....---
(PID.TID 0000.0001) // =======================================================
(PID.TID 0000.0001) // END OF FIELD                                          =
(PID.TID 0000.0001) // =======================================================
(PID.TID 0000.0001) 
(PID.TID 0000.0001) %MON fCori_max                    =   9.5419917861011E-05
(PID.TID 0000.0001) %MON fCori_min                    =   2.7752043431195E-05
(PID.TID 0000.0001) %MON fCori_mean                   =   6.2936249243167E-05
(PID.TID 0000.0001) %MON fCori_sd                     =   2.0885809702547E-05
(PID.TID 0000.0001) %MON fCoriG_max                   =   9.3489668167119E-05
(PID.TID 0000.0001) %MON fCoriG_min                   =   2.5256103669800E-05
(PID.TID 0000.0001) %MON fCoriG_mean                  =   6.0674632558389E-05
(PID.TID 0000.0001) %MON fCoriG_sd                    =   2.1059305790472E-05
(PID.TID 0000.0001)  PACKAGES_BOOT: opening data.pkg
(PID.TID 0000.0001)  OPEN_COPY_DATA_FILE: opening file data.pkg
(PID.TID 0000.0001) // =======================================================
(PID.TID 0000.0001) // Parameter file "data.pkg"
(PID.TID 0000.0001) // =======================================================
(PID.TID 0000.0001) ># Packages
(PID.TID 0000.0001) > &PACKAGES
(PID.TID 0000.0001) >  useGMRedi=.FALSE.,
(PID.TID 0000.0001) >  useKPP=.TRUE.,
(PID.TID 0000.0001) >  useECCO=.FALSE.,
(PID.TID 0000.0001) > &
(PID.TID 0000.0001) 
(PID.TID 0000.0001)  PACKAGES_BOOT: finished reading data.pkg
(PID.TID 0000.0001)  KPP_INIT: opening data.kpp
(PID.TID 0000.0001)  OPEN_COPY_DATA_FILE: opening file data.kpp
(PID.TID 0000.0001) // =======================================================
(PID.TID 0000.0001) // Parameter file "data.kpp"
(PID.TID 0000.0001) // =======================================================
(PID.TID 0000.0001) ># KPP parameters
(PID.TID 0000.0001) > &KPP_PARM01
(PID.TID 0000.0001) > KPPmixingMaps   = .FALSE.,
(PID.TID 0000.0001) > KPPwriteState   = .TRUE.,
(PID.TID 0000.0001) > kpp_dumpFreq    = 864000.0
(PID.TID 0000.0001) > &
(PID.TID 0000.0001) 
(PID.TID 0000.0001)  KPP_INIT: finished reading data.kpp
(PID.TID 0000.0001) KPP_CHECK: #define ALLOW_KPP
(PID.TID 0000.0001) // CG2D normalisation factor =          0.1575292392863445389492028E-03
(PID.TID 0000.0001) 
(PID.TID 0000.0001) // =======================================================
(PID.TID 0000.0001) // Model configuration
(PID.TID 0000.0001) // =======================================================
(PID.TID 0000.0001) //
(PID.TID 0000.0001) // "Physical" paramters ( PARM01 in namelist )
(PID.TID 0000.0001) //
(PID.TID 0000.0001) tRef =   /* Reference temperature profile ( oC or oK ) */
(PID.TID 0000.0001)                 2.900000000000000E+01,      /* K =  1 */
(PID.TID 0000.0001)                 2.800000000000000E+01,      /* K =  2 */
(PID.TID 0000.0001)                 2.700000000000000E+01,      /* K =  3 */
(PID.TID 0000.0001)                 2.600000000000000E+01,      /* K =  4 */
(PID.TID 0000.0001)                 2.500000000000000E+01,      /* K =  5 */
(PID.TID 0000.0001)                 2.400000000000000E+01,      /* K =  6 */
(PID.TID 0000.0001)                 2.300000000000000E+01,      /* K =  7 */
(PID.TID 0000.0001)                 2.200000000000000E+01,      /* K =  8 */
(PID.TID 0000.0001)                 2.100000000000000E+01,      /* K =  9 */
(PID.TID 0000.0001)                 2.000000000000000E+01,      /* K = 10 */
(PID.TID 0000.0001)                 1.900000000000000E+01,      /* K = 11 */
(PID.TID 0000.0001)                 1.800000000000000E+01,      /* K = 12 */
(PID.TID 0000.0001)                 1.700000000000000E+01,      /* K = 13 */
(PID.TID 0000.0001)                 1.600000000000000E+01,      /* K = 14 */
(PID.TID 0000.0001)                 1.500000000000000E+01,      /* K = 15 */
(PID.TID 0000.0001)                 1.400000000000000E+01,      /* K = 16 */
(PID.TID 0000.0001)                 1.300000000000000E+01,      /* K = 17 */
(PID.TID 0000.0001)                 1.200000000000000E+01,      /* K = 18 */
(PID.TID 0000.0001)                 1.100000000000000E+01,      /* K = 19 */
(PID.TID 0000.0001)                 1.000000000000000E+01,      /* K = 20 */
(PID.TID 0000.0001)                 9.000000000000000E+00,      /* K = 21 */
(PID.TID 0000.0001)                 8.000000000000000E+00,      /* K = 22 */
(PID.TID 0000.0001)                 7.000000000000000E+00       /* K = 23 */
(PID.TID 0000.0001)     ;
(PID.TID 0000.0001) sRef =   /* Reference salinity profile ( ppt ) */
(PID.TID 0000.0001)    23 @  0.000000000000000E+00              /* K =  1: 23 */
(PID.TID 0000.0001)     ;
(PID.TID 0000.0001) viscAh =   /* Lateral eddy viscosity ( m^2/s ) */
(PID.TID 0000.0001)                 5.000000000000000E+04
(PID.TID 0000.0001)     ;
(PID.TID 0000.0001) viscAh =   /* Lateral biharmonic viscosity ( m^4/s ) */
(PID.TID 0000.0001)                 5.000000000000000E+12
(PID.TID 0000.0001)     ;
(PID.TID 0000.0001) no_slip_sides =  /* Viscous BCs: No-slip sides */
(PID.TID 0000.0001)                   F
(PID.TID 0000.0001)     ;
(PID.TID 0000.0001) viscAz =   /* Vertical eddy viscosity ( m^2/s ) */
(PID.TID 0000.0001)                 1.000000000000000E-03
(PID.TID 0000.0001)     ;
(PID.TID 0000.0001) viscAr =   /* Vertical eddy viscosity ( units of r^2/s ) */
(PID.TID 0000.0001)                 1.000000000000000E-03
(PID.TID 0000.0001)     ;
(PID.TID 0000.0001) diffKhT =   /* Laplacian diffusion of heat laterally ( m^2/s ) */
(PID.TID 0000.0001)                 1.000000000000000E+03
(PID.TID 0000.0001)     ;
(PID.TID 0000.0001) diffK4T =   /* Bihaarmonic diffusion of heat laterally ( m^4/s ) */
(PID.TID 0000.0001)                 0.000000000000000E+00
(PID.TID 0000.0001)     ;
(PID.TID 0000.0001) diffKzT =   /* Laplacian diffusion of heat vertically ( m^2/s ) */
(PID.TID 0000.0001)                 1.000000000000000E-05
(PID.TID 0000.0001)     ;
(PID.TID 0000.0001) diffKrT =   /* Laplacian diffusion of heat vertically ( m^2/s ) */
(PID.TID 0000.0001)                 1.000000000000000E-05
(PID.TID 0000.0001)     ;
(PID.TID 0000.0001) diffKhS =   /* Laplacian diffusion of salt laterally ( m^2/s ) */
(PID.TID 0000.0001)                 1.000000000000000E+03
(PID.TID 0000.0001)     ;
(PID.TID 0000.0001) diffK4S =   /* Bihaarmonic diffusion of salt laterally ( m^4/s ) */
(PID.TID 0000.0001)                 0.000000000000000E+00
(PID.TID 0000.0001)     ;
(PID.TID 0000.0001) diffKzS =   /* Laplacian diffusion of salt vertically ( m^2/s ) */
(PID.TID 0000.0001)                 1.000000000000000E-05
(PID.TID 0000.0001)     ;
(PID.TID 0000.0001) diffKrS =   /* Laplacian diffusion of salt vertically ( m^2/s ) */
(PID.TID 0000.0001)                 1.000000000000000E-05
(PID.TID 0000.0001)     ;
(PID.TID 0000.0001) tAlpha =   /* Linear EOS thermal expansion coefficient ( 1/degree ) */
(PID.TID 0000.0001)                 2.000000000000000E-04
(PID.TID 0000.0001)     ;
(PID.TID 0000.0001) sBeta =   /* Linear EOS haline contraction coefficient ( 1/ppt ) */
(PID.TID 0000.0001)                 7.400000000000000E-04
(PID.TID 0000.0001)     ;
(PID.TID 0000.0001)   1  13.499  32.600  24.480  -0.201   0.771  -0.005  -0.002   0.000   0.000   0.000   0.000   0.000
(PID.TID 0000.0001)   2  13.498  32.600  24.525  -0.202   0.771  -0.005  -0.002   0.000   0.000   0.000   0.000   0.000
(PID.TID 0000.0001)   3  13.496  32.600  24.581  -0.202   0.771  -0.005  -0.002   0.000   0.000   0.000   0.000   0.000
(PID.TID 0000.0001)   4  13.494  32.600  24.660  -0.202   0.771  -0.005  -0.002   0.000   0.000   0.000   0.000   0.000
(PID.TID 0000.0001)   5  13.491  32.600  24.750  -0.203   0.771  -0.005  -0.002   0.000   0.000   0.000   0.000   0.000
(PID.TID 0000.0001)   6  13.488  32.600  24.851  -0.203   0.770  -0.005  -0.002   0.000   0.000   0.000   0.000   0.000
(PID.TID 0000.0001)   7  13.484  32.600  24.985  -0.204   0.770  -0.005  -0.002   0.000   0.000   0.000   0.000   0.000
(PID.TID 0000.0001)   8  13.478  32.600  25.176  -0.204   0.770  -0.005  -0.002   0.000   0.000   0.000   0.000   0.000
(PID.TID 0000.0001)   9  13.469  32.600  25.456  -0.205   0.769  -0.005  -0.002   0.000   0.000   0.000   0.000   0.000
(PID.TID 0000.0001)  10   8.467  35.150  28.748  -0.163   0.781  -0.005  -0.002   0.001   0.000   0.000   0.000   0.000
(PID.TID 0000.0001)  11   8.454  35.150  29.315  -0.166   0.780  -0.005  -0.002   0.001   0.000   0.000   0.000   0.000
(PID.TID 0000.0001)  12   5.946  34.900  30.300  -0.143   0.785  -0.006  -0.002   0.001   0.000   0.000   0.000   0.000
(PID.TID 0000.0001)  13   4.433  34.900  31.591  -0.132   0.786  -0.006  -0.003   0.000   0.000   0.000   0.000   0.000
(PID.TID 0000.0001)  14   3.909  34.750  32.966  -0.134   0.785  -0.006  -0.003   0.000   0.000   0.000   0.000   0.000
(PID.TID 0000.0001)  15   1.899  34.800  35.002  -0.121   0.787  -0.006  -0.003   0.000   0.000   0.000   0.000   0.000
(PID.TID 0000.0001)  16   1.372  34.750  36.991  -0.127   0.785  -0.006  -0.003  -0.001   0.000   0.000   0.000   0.000
(PID.TID 0000.0001)  17   1.332  34.800  39.171  -0.140   0.782  -0.006  -0.003  -0.001   0.000   0.000   0.000   0.000
(PID.TID 0000.0001)  18   0.797  34.800  41.472  -0.147   0.779  -0.006  -0.003  -0.001   0.000   0.000   0.000   0.000
(PID.TID 0000.0001)  19   0.749  34.800  43.682  -0.160   0.775  -0.005  -0.002  -0.002   0.000   0.000   0.000   0.000
(PID.TID 0000.0001)  20   0.214  34.750  45.912  -0.168   0.772  -0.005  -0.002  -0.002   0.000   0.000   0.000   0.000
(PID.TID 0000.0001)  21   0.160  34.750  48.080  -0.181   0.768  -0.005  -0.002  -0.003   0.000   0.000   0.000   0.000
(PID.TID 0000.0001)  22   0.584  34.750  50.131  -0.197   0.763  -0.005  -0.002  -0.001   0.000   0.000   0.000   0.000
(PID.TID 0000.0001)  23   0.522  34.750  52.248  -0.209   0.760  -0.005  -0.002  -0.002   0.000   0.000   0.000   0.000
(PID.TID 0000.0001) rhonil =   /* Reference density ( kg/m^3 ) */
(PID.TID 0000.0001)                 9.998000000000000E+02
(PID.TID 0000.0001)     ;
(PID.TID 0000.0001) rhoConst =   /* Reference density ( kg/m^3 ) */
(PID.TID 0000.0001)                 9.998000000000000E+02
(PID.TID 0000.0001)     ;
(PID.TID 0000.0001) gravity =   /* Gravitational acceleration ( m/s^2 ) */
(PID.TID 0000.0001)                 9.810000000000000E+00
(PID.TID 0000.0001)     ;
(PID.TID 0000.0001) gBaro =   /* Barotropic gravity ( m/s^2 ) */
(PID.TID 0000.0001)                 9.810000000000000E+00
(PID.TID 0000.0001)     ;
(PID.TID 0000.0001) f0 =   /* Reference coriolis parameter ( 1/s ) */
(PID.TID 0000.0001)                 1.000000000000000E-04
(PID.TID 0000.0001)     ;
(PID.TID 0000.0001) beta =   /* Beta ( 1/(m.s) ) */
(PID.TID 0000.0001)                 9.999999999999999E-12
(PID.TID 0000.0001)     ;
(PID.TID 0000.0001) freeSurfFac =   /* Implicit free surface factor */
(PID.TID 0000.0001)                 1.000000000000000E+00
(PID.TID 0000.0001)     ;
(PID.TID 0000.0001) implicitFreeSurface =   /* Implicit free surface on/off flag */
(PID.TID 0000.0001)                   T
(PID.TID 0000.0001)     ;
(PID.TID 0000.0001) rigidLid =   /* Rigid lid on/off flag */
(PID.TID 0000.0001)                   F
(PID.TID 0000.0001)     ;
(PID.TID 0000.0001) implicSurfPress =   /* Surface Pressure implicit factor (0-1)*/
(PID.TID 0000.0001)                 1.000000000000000E+00
(PID.TID 0000.0001)     ;
(PID.TID 0000.0001) implicDiv2Dflow =   /* Barot. Flow Div. implicit factor (0-1)*/
(PID.TID 0000.0001)                 1.000000000000000E+00
(PID.TID 0000.0001)     ;
(PID.TID 0000.0001) staggerTimeStep =   /* Stagger time stepping on/off flag */
(PID.TID 0000.0001)                   F
(PID.TID 0000.0001)     ;
(PID.TID 0000.0001) momStepping =  /* Momentum equation on/off flag */
(PID.TID 0000.0001)                   T
(PID.TID 0000.0001)     ;
(PID.TID 0000.0001) momAdvection =  /* Momentum advection on/off flag */
(PID.TID 0000.0001)                   T
(PID.TID 0000.0001)     ;
(PID.TID 0000.0001) momViscosity =  /* Momentum viscosity on/off flag */
(PID.TID 0000.0001)                   T
(PID.TID 0000.0001)     ;
(PID.TID 0000.0001) useCoriolis =  /* Coriolis on/off flag */
(PID.TID 0000.0001)                   T
(PID.TID 0000.0001)     ;
(PID.TID 0000.0001) momForcing =  /* Momentum forcing on/off flag */
(PID.TID 0000.0001)                   T
(PID.TID 0000.0001)     ;
(PID.TID 0000.0001) momPressureForcing =  /* Momentum pressure term on/off flag */
(PID.TID 0000.0001)                   T
(PID.TID 0000.0001)     ;
(PID.TID 0000.0001) tempStepping =  /* Temperature equation on/off flag */
(PID.TID 0000.0001)                   T
(PID.TID 0000.0001)     ;
(PID.TID 0000.0001) nonHydrostatic =  /* Non-Hydrostatic on/off flag */
(PID.TID 0000.0001)                   F
(PID.TID 0000.0001)     ;
(PID.TID 0000.0001) //
(PID.TID 0000.0001) // Elliptic solver(s) paramters ( PARM02 in namelist )
(PID.TID 0000.0001) //
(PID.TID 0000.0001) cg2dMaxIters =   /* Upper limit on 2d con. grad iterations  */
(PID.TID 0000.0001)                    1000
(PID.TID 0000.0001)     ;
(PID.TID 0000.0001) cg2dChkResFreq =   /* 2d con. grad convergence test frequency */
(PID.TID 0000.0001)                       1
(PID.TID 0000.0001)     ;
(PID.TID 0000.0001) cg2dTargetResidual =   /* 2d con. grad target residual  */
(PID.TID 0000.0001)                 1.000000000000000E-13
(PID.TID 0000.0001)     ;
(PID.TID 0000.0001) //
(PID.TID 0000.0001) // Time stepping paramters ( PARM03 in namelist )
(PID.TID 0000.0001) //
(PID.TID 0000.0001) nIter0 =   /* Base timestep number  */
(PID.TID 0000.0001)                       0
(PID.TID 0000.0001)     ;
(PID.TID 0000.0001) nTimeSteps =   /* Number of timesteps */
(PID.TID 0000.0001)                      20
(PID.TID 0000.0001)     ;
(PID.TID 0000.0001) deltatTmom =   /* Momentum equation timestep ( s ) */
(PID.TID 0000.0001)                 3.600000000000000E+03
(PID.TID 0000.0001)     ;
(PID.TID 0000.0001) deltatTtracer =   /* Tracer equation timestep ( s ) */
(PID.TID 0000.0001)                 3.600000000000000E+03
(PID.TID 0000.0001)     ;
(PID.TID 0000.0001) deltatTClock  =   /* Model clock timestep ( s ) */
(PID.TID 0000.0001)                 3.600000000000000E+03
(PID.TID 0000.0001)     ;
(PID.TID 0000.0001) cAdjFreq =   /* Convective adjustment interval ( s ) */
(PID.TID 0000.0001)                 0.000000000000000E+00
(PID.TID 0000.0001)     ;
(PID.TID 0000.0001) abeps =   /* Adams-Bashforth stabilizing weight */
(PID.TID 0000.0001)                 1.000000000000000E-01
(PID.TID 0000.0001)     ;
(PID.TID 0000.0001) tauCD =   /* CD coupling time-scale ( s ) */
(PID.TID 0000.0001)                 1.728000000000000E+05
(PID.TID 0000.0001)     ;
(PID.TID 0000.0001) rCD =   /* Normalised CD coupling parameter */
(PID.TID 0000.0001)                 9.791666666666666E-01
(PID.TID 0000.0001)     ;
(PID.TID 0000.0001) startTime =   /* Run start time ( s ). */
(PID.TID 0000.0001)                 0.000000000000000E+00
(PID.TID 0000.0001)     ;
(PID.TID 0000.0001) endTime =   /* Integration ending time ( s ). */
(PID.TID 0000.0001)                 7.200000000000000E+04
(PID.TID 0000.0001)     ;
(PID.TID 0000.0001) pChkPtFreq =   /* Permanent restart/checkpoint file interval ( s ). */
(PID.TID 0000.0001)                 0.000000000000000E+00
(PID.TID 0000.0001)     ;
(PID.TID 0000.0001) chkPtFreq =   /* Rolling restart/checkpoint file interval ( s ). */
(PID.TID 0000.0001)                 0.000000000000000E+00
(PID.TID 0000.0001)     ;
(PID.TID 0000.0001) dumpFreq =   /* Model state write out interval ( s ). */
(PID.TID 0000.0001)                 8.640000000000000E+05
(PID.TID 0000.0001)     ;
(PID.TID 0000.0001) //
(PID.TID 0000.0001) // Gridding paramters ( PARM04 in namelist )
(PID.TID 0000.0001) //
(PID.TID 0000.0001) usingCartesianGrid =   /* Cartesian coordinates flag ( True / False ) */
(PID.TID 0000.0001)                   F
(PID.TID 0000.0001)     ;
(PID.TID 0000.0001) usingSphericalPolarGrid =   /* Spherical coordinates flag ( True / False ) */
(PID.TID 0000.0001)                   T
(PID.TID 0000.0001)     ;
(PID.TID 0000.0001) groundAtK1 =   /* Lower Boundary (ground) at the surface(k=1) ( T / F ) */
(PID.TID 0000.0001)                   F
(PID.TID 0000.0001)     ;
(PID.TID 0000.0001) Ro_SeaLevel =   /* r(1) ( units of r ) */
(PID.TID 0000.0001)                 0.000000000000000E+00
(PID.TID 0000.0001)     ;
(PID.TID 0000.0001) rkFac =   /* minus Vertical index orientation  */
(PID.TID 0000.0001)                 1.000000000000000E+00
(PID.TID 0000.0001)     ;
(PID.TID 0000.0001) horiVertRatio =   /* Ratio on units : Horiz - Vertical */
(PID.TID 0000.0001)                 1.000000000000000E+00
(PID.TID 0000.0001)     ;
(PID.TID 0000.0001) delZ =   /* W spacing ( m ) */
(PID.TID 0000.0001)     2 @  1.000000000000000E+01,             /* K =  1:  2 */
(PID.TID 0000.0001)                 1.500000000000000E+01,      /* K =  3 */
(PID.TID 0000.0001)     2 @  2.000000000000000E+01,             /* K =  4:  5 */
(PID.TID 0000.0001)                 2.500000000000000E+01,      /* K =  6 */
(PID.TID 0000.0001)                 3.500000000000000E+01,      /* K =  7 */
(PID.TID 0000.0001)                 5.000000000000000E+01,      /* K =  8 */
(PID.TID 0000.0001)                 7.500000000000000E+01,      /* K =  9 */
(PID.TID 0000.0001)                 1.000000000000000E+02,      /* K = 10 */
(PID.TID 0000.0001)                 1.500000000000000E+02,      /* K = 11 */
(PID.TID 0000.0001)                 2.000000000000000E+02,      /* K = 12 */
(PID.TID 0000.0001)                 2.750000000000000E+02,      /* K = 13 */
(PID.TID 0000.0001)                 3.500000000000000E+02,      /* K = 14 */
(PID.TID 0000.0001)                 4.150000000000000E+02,      /* K = 15 */
(PID.TID 0000.0001)                 4.500000000000000E+02,      /* K = 16 */
(PID.TID 0000.0001)     7 @  5.000000000000000E+02              /* K = 17: 23 */
(PID.TID 0000.0001)     ;
(PID.TID 0000.0001) delP =   /* W spacing ( Pa ) */
(PID.TID 0000.0001)    23 @  1.234567000000000E+05              /* K =  1: 23 */
(PID.TID 0000.0001)     ;
(PID.TID 0000.0001) delR =   /* W spacing ( units of r ) */
(PID.TID 0000.0001)     2 @  1.000000000000000E+01,             /* K =  1:  2 */
(PID.TID 0000.0001)                 1.500000000000000E+01,      /* K =  3 */
(PID.TID 0000.0001)     2 @  2.000000000000000E+01,             /* K =  4:  5 */
(PID.TID 0000.0001)                 2.500000000000000E+01,      /* K =  6 */
(PID.TID 0000.0001)                 3.500000000000000E+01,      /* K =  7 */
(PID.TID 0000.0001)                 5.000000000000000E+01,      /* K =  8 */
(PID.TID 0000.0001)                 7.500000000000000E+01,      /* K =  9 */
(PID.TID 0000.0001)                 1.000000000000000E+02,      /* K = 10 */
(PID.TID 0000.0001)                 1.500000000000000E+02,      /* K = 11 */
(PID.TID 0000.0001)                 2.000000000000000E+02,      /* K = 12 */
(PID.TID 0000.0001)                 2.750000000000000E+02,      /* K = 13 */
(PID.TID 0000.0001)                 3.500000000000000E+02,      /* K = 14 */
(PID.TID 0000.0001)                 4.150000000000000E+02,      /* K = 15 */
(PID.TID 0000.0001)                 4.500000000000000E+02,      /* K = 16 */
(PID.TID 0000.0001)     7 @  5.000000000000000E+02              /* K = 17: 23 */
(PID.TID 0000.0001)     ;
(PID.TID 0000.0001) delX =   /* U spacing ( m - cartesian, degrees - spherical ) */
(PID.TID 0000.0001)    20 @  2.000000000000000E+00              /* I =  1: 20 */
(PID.TID 0000.0001)     ;
(PID.TID 0000.0001) delY =   /* V spacing ( m - cartesian, degrees - spherical ) */
(PID.TID 0000.0001)    16 @  2.000000000000000E+00              /* J =  1: 16 */
(PID.TID 0000.0001)     ;
(PID.TID 0000.0001) phiMin =    /* South edge (ignored - cartesian, degrees - spherical ) */
(PID.TID 0000.0001)                 1.000000000000000E+01
(PID.TID 0000.0001)     ;
(PID.TID 0000.0001) thetaMin =    /* West edge ( ignored - cartesian, degrees - spherical ) */
(PID.TID 0000.0001)                -4.200000000000000E+01
(PID.TID 0000.0001)     ;
(PID.TID 0000.0001) rSphere =    /* Radius ( ignored - cartesian, m - spherical ) */
(PID.TID 0000.0001)                 6.370000000000000E+06
(PID.TID 0000.0001)     ;
(PID.TID 0000.0001) xcoord =   /* P-point X coord ( m - cartesian, degrees - spherical ) */
(PID.TID 0000.0001)                -4.100000000000000E+01,      /* I =  1 */
(PID.TID 0000.0001)                -3.900000000000000E+01,      /* I =  2 */
(PID.TID 0000.0001)                -3.700000000000000E+01,      /* I =  3 */
(PID.TID 0000.0001)                -3.500000000000000E+01,      /* I =  4 */
(PID.TID 0000.0001)                -3.300000000000000E+01,      /* I =  5 */
(PID.TID 0000.0001)                -3.100000000000000E+01,      /* I =  6 */
(PID.TID 0000.0001)                -2.900000000000000E+01,      /* I =  7 */
(PID.TID 0000.0001)                -2.700000000000000E+01,      /* I =  8 */
(PID.TID 0000.0001)                -2.500000000000000E+01,      /* I =  9 */
(PID.TID 0000.0001)                -2.300000000000000E+01,      /* I = 10 */
(PID.TID 0000.0001)                -2.100000000000000E+01,      /* I = 11 */
(PID.TID 0000.0001)                -1.900000000000000E+01,      /* I = 12 */
(PID.TID 0000.0001)                -1.700000000000000E+01,      /* I = 13 */
(PID.TID 0000.0001)                -1.500000000000000E+01,      /* I = 14 */
(PID.TID 0000.0001)                -1.300000000000000E+01,      /* I = 15 */
(PID.TID 0000.0001)                -1.100000000000000E+01,      /* I = 16 */
(PID.TID 0000.0001)                -9.000000000000000E+00,      /* I = 17 */
(PID.TID 0000.0001)                -7.000000000000000E+00,      /* I = 18 */
(PID.TID 0000.0001)                -5.000000000000000E+00,      /* I = 19 */
(PID.TID 0000.0001)                -3.000000000000000E+00       /* I = 20 */
(PID.TID 0000.0001)     ;
(PID.TID 0000.0001) ycoord =   /* P-point Y coord ( m - cartesian, degrees - spherical ) */
(PID.TID 0000.0001)                 1.100000000000000E+01,      /* J =  1 */
(PID.TID 0000.0001)                 1.300000000000000E+01,      /* J =  2 */
(PID.TID 0000.0001)                 1.500000000000000E+01,      /* J =  3 */
(PID.TID 0000.0001)                 1.700000000000000E+01,      /* J =  4 */
(PID.TID 0000.0001)                 1.900000000000000E+01,      /* J =  5 */
(PID.TID 0000.0001)                 2.100000000000000E+01,      /* J =  6 */
(PID.TID 0000.0001)                 2.300000000000000E+01,      /* J =  7 */
(PID.TID 0000.0001)                 2.500000000000000E+01,      /* J =  8 */
(PID.TID 0000.0001)                 2.700000000000000E+01,      /* J =  9 */
(PID.TID 0000.0001)                 2.900000000000000E+01,      /* J = 10 */
(PID.TID 0000.0001)                 3.100000000000000E+01,      /* J = 11 */
(PID.TID 0000.0001)                 3.300000000000000E+01,      /* J = 12 */
(PID.TID 0000.0001)                 3.500000000000000E+01,      /* J = 13 */
(PID.TID 0000.0001)                 3.700000000000000E+01,      /* J = 14 */
(PID.TID 0000.0001)                 3.900000000000000E+01,      /* J = 15 */
(PID.TID 0000.0001)                 4.100000000000000E+01       /* J = 16 */
(PID.TID 0000.0001)     ;
(PID.TID 0000.0001) rcoord =   /* P-point R coordinate (  units of r ) */
(PID.TID 0000.0001)                -5.000000000000000E+00,      /* K =  1 */
(PID.TID 0000.0001)                -1.500000000000000E+01,      /* K =  2 */
(PID.TID 0000.0001)                -2.750000000000000E+01,      /* K =  3 */
(PID.TID 0000.0001)                -4.500000000000000E+01,      /* K =  4 */
(PID.TID 0000.0001)                -6.500000000000000E+01,      /* K =  5 */
(PID.TID 0000.0001)                -8.750000000000000E+01,      /* K =  6 */
(PID.TID 0000.0001)                -1.175000000000000E+02,      /* K =  7 */
(PID.TID 0000.0001)                -1.600000000000000E+02,      /* K =  8 */
(PID.TID 0000.0001)                -2.225000000000000E+02,      /* K =  9 */
(PID.TID 0000.0001)                -3.100000000000000E+02,      /* K = 10 */
(PID.TID 0000.0001)                -4.350000000000000E+02,      /* K = 11 */
(PID.TID 0000.0001)                -6.100000000000000E+02,      /* K = 12 */
(PID.TID 0000.0001)                -8.475000000000000E+02,      /* K = 13 */
(PID.TID 0000.0001)                -1.160000000000000E+03,      /* K = 14 */
(PID.TID 0000.0001)                -1.542500000000000E+03,      /* K = 15 */
(PID.TID 0000.0001)                -1.975000000000000E+03,      /* K = 16 */
(PID.TID 0000.0001)                -2.450000000000000E+03,      /* K = 17 */
(PID.TID 0000.0001)                -2.950000000000000E+03,      /* K = 18 */
(PID.TID 0000.0001)                -3.450000000000000E+03,      /* K = 19 */
(PID.TID 0000.0001)                -3.950000000000000E+03,      /* K = 20 */
(PID.TID 0000.0001)                -4.450000000000000E+03,      /* K = 21 */
(PID.TID 0000.0001)                -4.950000000000000E+03,      /* K = 22 */
(PID.TID 0000.0001)                -5.450000000000000E+03       /* K = 23 */
(PID.TID 0000.0001)     ;
(PID.TID 0000.0001) dxF =  /* dxF(:,1,:,1) ( m - cartesian, degrees - spherical ) */
(PID.TID 0000.0001)    20 @  2.182696600587791E+05              /* I =  1: 20 */
(PID.TID 0000.0001)     ;
(PID.TID 0000.0001) dxF =  /* dxF(1,:,1,:) ( m - cartesian, degrees - spherical ) */
(PID.TID 0000.0001)                 2.182696600587791E+05,      /* J =  1 */
(PID.TID 0000.0001)                 2.166560038253696E+05,      /* J =  2 */
(PID.TID 0000.0001)                 2.147783856245979E+05,      /* J =  3 */
(PID.TID 0000.0001)                 2.126390930450167E+05,      /* J =  4 */
(PID.TID 0000.0001)                 2.102407324851014E+05,      /* J =  5 */
(PID.TID 0000.0001)                 2.075862259777553E+05,      /* J =  6 */
(PID.TID 0000.0001)                 2.046788076302621E+05,      /* J =  7 */
(PID.TID 0000.0001)                 2.015220196840248E+05,      /* J =  8 */
(PID.TID 0000.0001)                 1.981197081988899E+05,      /* J =  9 */
(PID.TID 0000.0001)                 1.944760183673163E+05,      /* J = 10 */
(PID.TID 0000.0001)                 1.905953894640962E+05,      /* J = 11 */
(PID.TID 0000.0001)                 1.864825494377833E+05,      /* J = 12 */
(PID.TID 0000.0001)                 1.821425091504150E+05,      /* J = 13 */
(PID.TID 0000.0001)                 1.775805562725496E+05,      /* J = 14 */
(PID.TID 0000.0001)                 1.728022488410539E+05,      /* J = 15 */
(PID.TID 0000.0001)                 1.678134084874912E+05       /* J = 16 */
(PID.TID 0000.0001)     ;
(PID.TID 0000.0001) dyF =  /* dyF(:,1,:,1) ( m - cartesian, degrees - spherical ) */
(PID.TID 0000.0001)    20 @  2.223549467040776E+05              /* I =  1: 20 */
(PID.TID 0000.0001)     ;
(PID.TID 0000.0001) dyF =  /* dyF(1,:,1,:) ( m - cartesian, degrees - spherical ) */
(PID.TID 0000.0001)    16 @  2.223549467040776E+05              /* J =  1: 16 */
(PID.TID 0000.0001)     ;
(PID.TID 0000.0001) dxG =  /* dxG(:,1,:,1) ( m - cartesian, degrees - spherical ) */
(PID.TID 0000.0001)    20 @  2.189768754347919E+05              /* I =  1: 20 */
(PID.TID 0000.0001)     ;
(PID.TID 0000.0001) dxG =  /* dxG(1,:,1,:) ( m - cartesian, degrees - spherical ) */
(PID.TID 0000.0001)                 2.189768754347919E+05,      /* J =  1 */
(PID.TID 0000.0001)                 2.174959576298867E+05,      /* J =  2 */
(PID.TID 0000.0001)                 2.157500545032934E+05,      /* J =  3 */
(PID.TID 0000.0001)                 2.137412931690361E+05,      /* J =  4 */
(PID.TID 0000.0001)                 2.114721209933746E+05,      /* J =  5 */
(PID.TID 0000.0001)                 2.089453026130656E+05,      /* J =  6 */
(PID.TID 0000.0001)                 2.061639165670792E+05,      /* J =  7 */
(PID.TID 0000.0001)                 2.031313515458727E+05,      /* J =  8 */
(PID.TID 0000.0001)                 1.998513022627935E+05,      /* J =  9 */
(PID.TID 0000.0001)                 1.963277649526403E+05,      /* J = 10 */
(PID.TID 0000.0001)                 1.925650325028661E+05,      /* J = 11 */
(PID.TID 0000.0001)                 1.885676892233566E+05,      /* J = 12 */
(PID.TID 0000.0001)                 1.843406052611542E+05,      /* J = 13 */
(PID.TID 0000.0001)                 1.798889306669345E+05,      /* J = 14 */
(PID.TID 0000.0001)                 1.752180891204627E+05,      /* J = 15 */
(PID.TID 0000.0001)                 1.703337713226752E+05       /* J = 16 */
(PID.TID 0000.0001)     ;
(PID.TID 0000.0001) dyG =  /* dyG(:,1,:,1) ( m - cartesian, degrees - spherical ) */
(PID.TID 0000.0001)    20 @  2.223549467040776E+05              /* I =  1: 20 */
(PID.TID 0000.0001)     ;
(PID.TID 0000.0001) dyG =  /* dyG(1,:,1,:) ( m - cartesian, degrees - spherical ) */
(PID.TID 0000.0001)    16 @  2.223549467040776E+05              /* J =  1: 16 */
(PID.TID 0000.0001)     ;
(PID.TID 0000.0001) dxC =  /* dxC(:,1,:,1) ( m - cartesian, degrees - spherical ) */
(PID.TID 0000.0001)    20 @  2.182696600587791E+05              /* I =  1: 20 */
(PID.TID 0000.0001)     ;
(PID.TID 0000.0001) dxC =  /* dxC(1,:,1,:) ( m - cartesian, degrees - spherical ) */
(PID.TID 0000.0001)                 2.182696600587791E+05,      /* J =  1 */
(PID.TID 0000.0001)                 2.166560038253696E+05,      /* J =  2 */
(PID.TID 0000.0001)                 2.147783856245979E+05,      /* J =  3 */
(PID.TID 0000.0001)                 2.126390930450167E+05,      /* J =  4 */
(PID.TID 0000.0001)                 2.102407324851014E+05,      /* J =  5 */
(PID.TID 0000.0001)                 2.075862259777553E+05,      /* J =  6 */
(PID.TID 0000.0001)                 2.046788076302621E+05,      /* J =  7 */
(PID.TID 0000.0001)                 2.015220196840248E+05,      /* J =  8 */
(PID.TID 0000.0001)                 1.981197081988899E+05,      /* J =  9 */
(PID.TID 0000.0001)                 1.944760183673163E+05,      /* J = 10 */
(PID.TID 0000.0001)                 1.905953894640962E+05,      /* J = 11 */
(PID.TID 0000.0001)                 1.864825494377833E+05,      /* J = 12 */
(PID.TID 0000.0001)                 1.821425091504150E+05,      /* J = 13 */
(PID.TID 0000.0001)                 1.775805562725496E+05,      /* J = 14 */
(PID.TID 0000.0001)                 1.728022488410539E+05,      /* J = 15 */
(PID.TID 0000.0001)                 1.678134084874912E+05       /* J = 16 */
(PID.TID 0000.0001)     ;
(PID.TID 0000.0001) dyC =  /* dyC(:,1,:,1) ( m - cartesian, degrees - spherical ) */
(PID.TID 0000.0001)    20 @  2.223549467040776E+05              /* I =  1: 20 */
(PID.TID 0000.0001)     ;
(PID.TID 0000.0001) dyC =  /* dyC(1,:,1,:) ( m - cartesian, degrees - spherical ) */
(PID.TID 0000.0001)    16 @  2.223549467040776E+05              /* J =  1: 16 */
(PID.TID 0000.0001)     ;
(PID.TID 0000.0001) dxV =  /* dxV(:,1,:,1) ( m - cartesian, degrees - spherical ) */
(PID.TID 0000.0001)    20 @  2.189768754347919E+05              /* I =  1: 20 */
(PID.TID 0000.0001)     ;
(PID.TID 0000.0001) dxV =  /* dxV(1,:,1,:) ( m - cartesian, degrees - spherical ) */
(PID.TID 0000.0001)                 2.189768754347919E+05,      /* J =  1 */
(PID.TID 0000.0001)                 2.174959576298867E+05,      /* J =  2 */
(PID.TID 0000.0001)                 2.157500545032934E+05,      /* J =  3 */
(PID.TID 0000.0001)                 2.137412931690361E+05,      /* J =  4 */
(PID.TID 0000.0001)                 2.114721209933746E+05,      /* J =  5 */
(PID.TID 0000.0001)                 2.089453026130656E+05,      /* J =  6 */
(PID.TID 0000.0001)                 2.061639165670792E+05,      /* J =  7 */
(PID.TID 0000.0001)                 2.031313515458727E+05,      /* J =  8 */
(PID.TID 0000.0001)                 1.998513022627935E+05,      /* J =  9 */
(PID.TID 0000.0001)                 1.963277649526403E+05,      /* J = 10 */
(PID.TID 0000.0001)                 1.925650325028661E+05,      /* J = 11 */
(PID.TID 0000.0001)                 1.885676892233566E+05,      /* J = 12 */
(PID.TID 0000.0001)                 1.843406052611542E+05,      /* J = 13 */
(PID.TID 0000.0001)                 1.798889306669345E+05,      /* J = 14 */
(PID.TID 0000.0001)                 1.752180891204627E+05,      /* J = 15 */
(PID.TID 0000.0001)                 1.703337713226752E+05       /* J = 16 */
(PID.TID 0000.0001)     ;
(PID.TID 0000.0001) dyU =  /* dyU(:,1,:,1) ( m - cartesian, degrees - spherical ) */
(PID.TID 0000.0001)    20 @  2.223549467040776E+05              /* I =  1: 20 */
(PID.TID 0000.0001)     ;
(PID.TID 0000.0001) dyU =  /* dyU(1,:,1,:) ( m - cartesian, degrees - spherical ) */
(PID.TID 0000.0001)    16 @  2.223549467040776E+05              /* J =  1: 16 */
(PID.TID 0000.0001)     ;
(PID.TID 0000.0001) rA =  /* rA(:,1,:,1) ( m - cartesian, degrees - spherical ) */
(PID.TID 0000.0001)    20 @  4.853087465028468E+10              /* I =  1: 20 */
(PID.TID 0000.0001)     ;
(PID.TID 0000.0001) rA =  /* rA(1,:,1,:) ( m - cartesian, degrees - spherical ) */
(PID.TID 0000.0001)                 4.853087465028468E+10,      /* J =  1 */
(PID.TID 0000.0001)                 4.817208842057613E+10,      /* J =  2 */
(PID.TID 0000.0001)                 4.775461192146853E+10,      /* J =  3 */
(PID.TID 0000.0001)                 4.727895378376868E+10,      /* J =  4 */
(PID.TID 0000.0001)                 4.674569352364783E+10,      /* J =  5 */
(PID.TID 0000.0001)                 4.615548083659052E+10,      /* J =  6 */
(PID.TID 0000.0001)                 4.550903480584068E+10,      /* J =  7 */
(PID.TID 0000.0001)                 4.480714302630919E+10,      /* J =  8 */
(PID.TID 0000.0001)                 4.405066064501150E+10,      /* J =  9 */
(PID.TID 0000.0001)                 4.324050931920189E+10,      /* J = 10 */
(PID.TID 0000.0001)                 4.237767609347689E+10,      /* J = 11 */
(PID.TID 0000.0001)                 4.146321219721243E+10,      /* J = 12 */
(PID.TID 0000.0001)                 4.049823176380376E+10,      /* J = 13 */
(PID.TID 0000.0001)                 3.948391047326554E+10,      /* J = 14 */
(PID.TID 0000.0001)                 3.842148411984555E+10,      /* J = 15 */
(PID.TID 0000.0001)                 3.731224710640170E+10       /* J = 16 */
(PID.TID 0000.0001)     ;
(PID.TID 0000.0001) rAw =  /* rAw(:,1,:,1) ( m - cartesian, degrees - spherical ) */
(PID.TID 0000.0001)    20 @  4.853087465028468E+10              /* I =  1: 20 */
(PID.TID 0000.0001)     ;
(PID.TID 0000.0001) rAw =  /* rAw(1,:,1,:) ( m - cartesian, degrees - spherical ) */
(PID.TID 0000.0001)                 4.853087465028468E+10,      /* J =  1 */
(PID.TID 0000.0001)                 4.817208842057613E+10,      /* J =  2 */
(PID.TID 0000.0001)                 4.775461192146853E+10,      /* J =  3 */
(PID.TID 0000.0001)                 4.727895378376868E+10,      /* J =  4 */
(PID.TID 0000.0001)                 4.674569352364783E+10,      /* J =  5 */
(PID.TID 0000.0001)                 4.615548083659052E+10,      /* J =  6 */
(PID.TID 0000.0001)                 4.550903480584068E+10,      /* J =  7 */
(PID.TID 0000.0001)                 4.480714302630919E+10,      /* J =  8 */
(PID.TID 0000.0001)                 4.405066064501150E+10,      /* J =  9 */
(PID.TID 0000.0001)                 4.324050931920189E+10,      /* J = 10 */
(PID.TID 0000.0001)                 4.237767609347689E+10,      /* J = 11 */
(PID.TID 0000.0001)                 4.146321219721243E+10,      /* J = 12 */
(PID.TID 0000.0001)                 4.049823176380376E+10,      /* J = 13 */
(PID.TID 0000.0001)                 3.948391047326554E+10,      /* J = 14 */
(PID.TID 0000.0001)                 3.842148411984555E+10,      /* J = 15 */
(PID.TID 0000.0001)                 3.731224710640170E+10       /* J = 16 */
(PID.TID 0000.0001)     ;
(PID.TID 0000.0001) rAs =  /* rAs(:,1,:,1) ( m - cartesian, degrees - spherical ) */
(PID.TID 0000.0001)    20 @  4.868811950398895E+10              /* I =  1: 20 */
(PID.TID 0000.0001)     ;
(PID.TID 0000.0001) rAs =  /* rAs(1,:,1,:) ( m - cartesian, degrees - spherical ) */
(PID.TID 0000.0001)                 4.868811950398895E+10,      /* J =  1 */
(PID.TID 0000.0001)                 4.835884682203275E+10,      /* J =  2 */
(PID.TID 0000.0001)                 4.797065633433311E+10,      /* J =  3 */
(PID.TID 0000.0001)                 4.752402099120341E+10,      /* J =  4 */
(PID.TID 0000.0001)                 4.701948494900998E+10,      /* J =  5 */
(PID.TID 0000.0001)                 4.645766290720268E+10,      /* J =  6 */
(PID.TID 0000.0001)                 4.583923935939733E+10,      /* J =  7 */
(PID.TID 0000.0001)                 4.516496775942609E+10,      /* J =  8 */
(PID.TID 0000.0001)                 4.443566960336993E+10,      /* J =  9 */
(PID.TID 0000.0001)                 4.365223342869232E+10,      /* J = 10 */
(PID.TID 0000.0001)                 4.281561373169274E+10,      /* J = 11 */
(PID.TID 0000.0001)                 4.192682980460106E+10,      /* J = 12 */
(PID.TID 0000.0001)                 4.098696449372525E+10,      /* J = 13 */
(PID.TID 0000.0001)                 3.999716288017197E+10,      /* J = 14 */
(PID.TID 0000.0001)                 3.895863088473959E+10,      /* J = 15 */
(PID.TID 0000.0001)                 3.787263379869144E+10       /* J = 16 */
(PID.TID 0000.0001)     ;
(PID.TID 0000.0001) 
(PID.TID 0000.0001)  MDSREADFIELD: opening global file: kf_climtheta
(PID.TID 0000.0001) // =======================================================
(PID.TID 0000.0001) // Field Initial Temperature at iteration          1
(PID.TID 0000.0001) // CMIN =          1.840084838867188E+01
(PID.TID 0000.0001) // CMAX =          2.607793426513672E+01
(PID.TID 0000.0001) // CINT =          2.843365139431424E-01
(PID.TID 0000.0001) // SYMBOLS (CMIN->CMAX): -abcdefghijklmnopqrstuvwxyz+
(PID.TID 0000.0001) //                  0.0: .
(PID.TID 0000.0001) // RANGE I (Lo:Hi:Step):(   1:  20:   1)
(PID.TID 0000.0001) // RANGE J (Lo:Hi:Step):(  16:   1:  -1)
(PID.TID 0000.0001) // RANGE K (Lo:Hi:Step):(   1:   1:   1)
(PID.TID 0000.0001) // =======================================================
(PID.TID 0000.0001) K =   1
(PID.TID 0000.0001)                I=10      I=20
(PID.TID 0000.0001) |--J--|123456789|123456789|
(PID.TID 0000.0001)     16 ....................
(PID.TID 0000.0001)     15 .jihhgfeedddcba---a.
(PID.TID 0000.0001)     14 .kjiihggffeedcbbabb.
(PID.TID 0000.0001)     13 .lkkjiiiihgfedccbc..
(PID.TID 0000.0001)     12 .mllkkjjjihgfedcc...
(PID.TID 0000.0001)     11 .onnmmllkjihgfeec...
(PID.TID 0000.0001)     10 .rrqqponmmlkihf.....
(PID.TID 0000.0001)      9 .utssrqponmljh......
(PID.TID 0000.0001)      8 .vuttsrqponlig......
(PID.TID 0000.0001)      7 .vuutsrrponkif......
(PID.TID 0000.0001)      6 .wvvuutsrqomjh......
(PID.TID 0000.0001)      5 .yxwwwvutsrpnl......
(PID.TID 0000.0001)      4 .zyyyxxwwvutrq......
(PID.TID 0000.0001)      3 .zzzzyyxxxxwvu......
(PID.TID 0000.0001)      2 .+++++zzz+++zy......
(PID.TID 0000.0001)      1 ....................
(PID.TID 0000.0001) // =======================================================
(PID.TID 0000.0001) // END OF FIELD                                          =
(PID.TID 0000.0001) // =======================================================
(PID.TID 0000.0001) 
(PID.TID 0000.0001)  MDSREADFIELD: opening global file: kf_climsalt
(PID.TID 0000.0001) // =======================================================
(PID.TID 0000.0001) // Field Initial Salinity at iteration          1
(PID.TID 0000.0001) // CMIN =          3.501070022583008E+01
(PID.TID 0000.0001) // CMAX =          3.739887619018555E+01
(PID.TID 0000.0001) // CINT =          8.845096164279515E-02
(PID.TID 0000.0001) // SYMBOLS (CMIN->CMAX): -abcdefghijklmnopqrstuvwxyz+
(PID.TID 0000.0001) //                  0.0: .
(PID.TID 0000.0001) // RANGE I (Lo:Hi:Step):(   1:  20:   1)
(PID.TID 0000.0001) // RANGE J (Lo:Hi:Step):(  16:   1:  -1)
(PID.TID 0000.0001) // RANGE K (Lo:Hi:Step):(   1:   1:   1)
(PID.TID 0000.0001) // =======================================================
(PID.TID 0000.0001) K =   1
(PID.TID 0000.0001)                I=10      I=20
(PID.TID 0000.0001) |--J--|123456789|123456789|
(PID.TID 0000.0001)     16 ....................
(PID.TID 0000.0001)     15 .oonnnnmmnnnnnnmllk.
(PID.TID 0000.0001)     14 .ppppoooopppppppooo.
(PID.TID 0000.0001)     13 .qqqqqrrrrrrqqqqqq..
(PID.TID 0000.0001)     12 .tttttttttttssrqp...
(PID.TID 0000.0001)     11 .wwwwwwvvvvuusrpn...
(PID.TID 0000.0001)     10 .zzyyyyyxxwvusr.....
(PID.TID 0000.0001)      9 .++zzzzyxxwutr......
(PID.TID 0000.0001)      8 .+zzyyyxwvusrp......
(PID.TID 0000.0001)      7 .xxxxwwutsrpnm......
(PID.TID 0000.0001)      6 .uuuuutsqponlj......
(PID.TID 0000.0001)      5 .rrrrqqponmkji......
(PID.TID 0000.0001)      4 .poooonmmlkihg......
(PID.TID 0000.0001)      3 .mmlllllkjihec......
(PID.TID 0000.0001)      2 .jjjkkkjjihfd-......
(PID.TID 0000.0001)      1 ....................
(PID.TID 0000.0001) // =======================================================
(PID.TID 0000.0001) // END OF FIELD                                          =
(PID.TID 0000.0001) // =======================================================
(PID.TID 0000.0001) 
(PID.TID 0000.0001)  MDSREADFIELD: opening global file: kf_fu
(PID.TID 0000.0001)  MDSREADFIELD: opening global file: kf_fv
(PID.TID 0000.0001)  MDSREADFIELD: opening global file: kf_qnet
(PID.TID 0000.0001)  MDSREADFIELD: opening global file: kf_empmr
(PID.TID 0000.0001)  MDSREADFIELD: opening global file: kf_sst
(PID.TID 0000.0001)  MDSREADFIELD: opening global file: kf_sss
(PID.TID 0000.0001)  MDSREADFIELD: opening global file: kf_sw
(PID.TID 0000.0001) // =======================================================
(PID.TID 0000.0001) // Model current state
(PID.TID 0000.0001) // =======================================================
(PID.TID 0000.0001) 
(PID.TID 0000.0001) // =======================================================
(PID.TID 0000.0001) // Begin MONITOR dynamic field statistics
(PID.TID 0000.0001) // =======================================================
(PID.TID 0000.0001) %MON time_tsnumber                =                     0
(PID.TID 0000.0001) %MON time_secondsf                =   0.0000000000000E+00
(PID.TID 0000.0001) %MON time_secondsi                =                     0
(PID.TID 0000.0001) %MON dynstat_eta_max              =   0.0000000000000E+00
(PID.TID 0000.0001) %MON dynstat_eta_min              =   0.0000000000000E+00
(PID.TID 0000.0001) %MON dynstat_eta_mean             =   0.0000000000000E+00
(PID.TID 0000.0001) %MON dynstat_eta_sd               =   0.0000000000000E+00
(PID.TID 0000.0001) %MON dynstat_eta_del2             =   0.0000000000000E+00
(PID.TID 0000.0001) %MON dynstat_uvel_max             =   0.0000000000000E+00
(PID.TID 0000.0001) %MON dynstat_uvel_min             =   0.0000000000000E+00
(PID.TID 0000.0001) %MON dynstat_uvel_mean            =   0.0000000000000E+00
(PID.TID 0000.0001) %MON dynstat_uvel_sd              =   0.0000000000000E+00
(PID.TID 0000.0001) %MON dynstat_uvel_del2            =   0.0000000000000E+00
(PID.TID 0000.0001) %MON dynstat_vvel_max             =   0.0000000000000E+00
(PID.TID 0000.0001) %MON dynstat_vvel_min             =   0.0000000000000E+00
(PID.TID 0000.0001) %MON dynstat_vvel_mean            =   0.0000000000000E+00
(PID.TID 0000.0001) %MON dynstat_vvel_sd              =   0.0000000000000E+00
(PID.TID 0000.0001) %MON dynstat_vvel_del2            =   0.0000000000000E+00
(PID.TID 0000.0001) %MON dynstat_wvel_max             =   0.0000000000000E+00
(PID.TID 0000.0001) %MON dynstat_wvel_min             =   0.0000000000000E+00
(PID.TID 0000.0001) %MON dynstat_wvel_mean            =   0.0000000000000E+00
(PID.TID 0000.0001) %MON dynstat_wvel_sd              =   0.0000000000000E+00
(PID.TID 0000.0001) %MON dynstat_wvel_del2            =   0.0000000000000E+00
(PID.TID 0000.0001) %MON dynstat_theta_max            =   2.6077934265137E+01
(PID.TID 0000.0001) %MON dynstat_theta_min            =   1.8064365386963E+00
(PID.TID 0000.0001) %MON dynstat_theta_mean           =   5.4784105600004E+00
(PID.TID 0000.0001) %MON dynstat_theta_sd             =   4.5923951934310E+00
(PID.TID 0000.0001) %MON dynstat_theta_del2           =   5.0898848572070E-02
(PID.TID 0000.0001) %MON dynstat_salt_max             =   3.7401638031006E+01
(PID.TID 0000.0001) %MON dynstat_salt_min             =   3.4726768493652E+01
(PID.TID 0000.0001) %MON dynstat_salt_mean            =   3.5157555715946E+01
(PID.TID 0000.0001) %MON dynstat_salt_sd              =   4.1377404390946E-01
(PID.TID 0000.0001) %MON dynstat_salt_del2            =   1.2632116608019E-02
(PID.TID 0000.0001) %MON advcfl_uvel_max              =   0.0000000000000E+00
(PID.TID 0000.0001) %MON advcfl_vvel_max              =   0.0000000000000E+00
(PID.TID 0000.0001) %MON advcfl_wvel_max              =   0.0000000000000E+00
(PID.TID 0000.0001) %MON advcfl_W_hf_max              =   0.0000000000000E+00
(PID.TID 0000.0001) %MON ke_max                       =   0.0000000000000E+00
(PID.TID 0000.0001) %MON ke_mean                      =   0.0000000000000E+00
(PID.TID 0000.0001) %MON ke_volint                    =   0.0000000000000E+00
(PID.TID 0000.0001) %MON ke_volmean                   =   0.0000000000000E+00
(PID.TID 0000.0001) // =======================================================
(PID.TID 0000.0001) // End MONITOR dynamic field statistics
(PID.TID 0000.0001) // =======================================================
 S/R EXTERNAL_FIELDS_LOAD: Reading new data  0. 0
(PID.TID 0000.0001)  MDSREADFIELD: opening global file: kf_fu
(PID.TID 0000.0001)  MDSREADFIELD: opening global file: kf_fu
(PID.TID 0000.0001)  MDSREADFIELD: opening global file: kf_fv
(PID.TID 0000.0001)  MDSREADFIELD: opening global file: kf_fv
(PID.TID 0000.0001)  MDSREADFIELD: opening global file: kf_qnet
(PID.TID 0000.0001)  MDSREADFIELD: opening global file: kf_qnet
(PID.TID 0000.0001)  MDSREADFIELD: opening global file: kf_empmr
(PID.TID 0000.0001)  MDSREADFIELD: opening global file: kf_empmr
(PID.TID 0000.0001)  MDSREADFIELD: opening global file: kf_sst
(PID.TID 0000.0001)  MDSREADFIELD: opening global file: kf_sst
(PID.TID 0000.0001)  MDSREADFIELD: opening global file: kf_sss
(PID.TID 0000.0001)  MDSREADFIELD: opening global file: kf_sss
(PID.TID 0000.0001)  MDSREADFIELD: opening global file: kf_sw
(PID.TID 0000.0001)  MDSREADFIELD: opening global file: kf_sw
 cg2d: Sum(rhs),rhsMax =   5.30478438953708E-15  4.50737656360046E-01
(PID.TID 0000.0001)                    cg2d_init_res =    3.97960747080083E+00
(PID.TID 0000.0001)                       cg2d_iters =    50
(PID.TID 0000.0001)                         cg2d_res =    7.13208987923441E-14
(PID.TID 0000.0001) // =======================================================
(PID.TID 0000.0001) // Begin MONITOR dynamic field statistics
(PID.TID 0000.0001) // =======================================================
(PID.TID 0000.0001) %MON time_tsnumber                =                     1
(PID.TID 0000.0001) %MON time_secondsf                =   3.6000000000000E+03
(PID.TID 0000.0001) %MON time_secondsi                =                  3600
(PID.TID 0000.0001) %MON dynstat_eta_max              =   7.9831848646392E-02
(PID.TID 0000.0001) %MON dynstat_eta_min              =  -1.0327152670087E-01
(PID.TID 0000.0001) %MON dynstat_eta_mean             =  -1.0352114575101E-17
(PID.TID 0000.0001) %MON dynstat_eta_sd               =   3.4047408239500E-02
(PID.TID 0000.0001) %MON dynstat_eta_del2             =   4.0984734777374E-03
(PID.TID 0000.0001) %MON dynstat_uvel_max             =   5.3767310068707E-02
(PID.TID 0000.0001) %MON dynstat_uvel_min             =  -4.2462040483584E-02
(PID.TID 0000.0001) %MON dynstat_uvel_mean            =  -1.7162005942187E-03
(PID.TID 0000.0001) %MON dynstat_uvel_sd              =   1.4714478547715E-03
(PID.TID 0000.0001) %MON dynstat_uvel_del2            =   4.3033089722552E-04
(PID.TID 0000.0001) %MON dynstat_vvel_max             =   1.0121846303911E-02
(PID.TID 0000.0001) %MON dynstat_vvel_min             =  -2.9296628091431E-02
(PID.TID 0000.0001) %MON dynstat_vvel_mean            =  -1.2965381764510E-04
(PID.TID 0000.0001) %MON dynstat_vvel_sd              =   1.6348919778738E-03
(PID.TID 0000.0001) %MON dynstat_vvel_del2            =   5.9219756278736E-04
(PID.TID 0000.0001) %MON dynstat_wvel_max             =   0.0000000000000E+00
(PID.TID 0000.0001) %MON dynstat_wvel_min             =   0.0000000000000E+00
(PID.TID 0000.0001) %MON dynstat_wvel_mean            =   0.0000000000000E+00
(PID.TID 0000.0001) %MON dynstat_wvel_sd              =   0.0000000000000E+00
(PID.TID 0000.0001) %MON dynstat_wvel_del2            =   0.0000000000000E+00
(PID.TID 0000.0001) %MON dynstat_theta_max            =   2.6076654048020E+01
(PID.TID 0000.0001) %MON dynstat_theta_min            =   1.8064390104771E+00
(PID.TID 0000.0001) %MON dynstat_theta_mean           =   5.4784296546518E+00
(PID.TID 0000.0001) %MON dynstat_theta_sd             =   4.5924594548543E+00
(PID.TID 0000.0001) %MON dynstat_theta_del2           =   5.0903686392627E-02
(PID.TID 0000.0001) %MON dynstat_salt_max             =   3.7400751159636E+01
(PID.TID 0000.0001) %MON dynstat_salt_min             =   3.4726771995658E+01
(PID.TID 0000.0001) %MON dynstat_salt_mean            =   3.5157556923008E+01
(PID.TID 0000.0001) %MON dynstat_salt_sd              =   4.1377676512749E-01
(PID.TID 0000.0001) %MON dynstat_salt_del2            =   1.2629962839006E-02
(PID.TID 0000.0001) %MON advcfl_uvel_max              =   1.1201377154842E-03
(PID.TID 0000.0001) %MON advcfl_vvel_max              =   4.7432208139499E-04
(PID.TID 0000.0001) %MON advcfl_wvel_max              =   0.0000000000000E+00
(PID.TID 0000.0001) %MON advcfl_W_hf_max              =   0.0000000000000E+00
(PID.TID 0000.0001) %MON ke_max                       =   9.5687170714355E-04
(PID.TID 0000.0001) %MON ke_mean                      =   1.4363503648160E-05
(PID.TID 0000.0001) %MON ke_volint                    =   1.2545516799908E+11
(PID.TID 0000.0001) %MON ke_volmean                   =   3.4822070546039E-06
(PID.TID 0000.0001) // =======================================================
(PID.TID 0000.0001) // End MONITOR dynamic field statistics
(PID.TID 0000.0001) // =======================================================
 S/R EXTERNAL_FIELDS_LOAD: Reading new data  3600. 1
(PID.TID 0000.0001)  MDSREADFIELD: opening global file: kf_fu
(PID.TID 0000.0001)  MDSREADFIELD: opening global file: kf_fu
(PID.TID 0000.0001)  MDSREADFIELD: opening global file: kf_fv
(PID.TID 0000.0001)  MDSREADFIELD: opening global file: kf_fv
(PID.TID 0000.0001)  MDSREADFIELD: opening global file: kf_qnet
(PID.TID 0000.0001)  MDSREADFIELD: opening global file: kf_qnet
(PID.TID 0000.0001)  MDSREADFIELD: opening global file: kf_empmr
(PID.TID 0000.0001)  MDSREADFIELD: opening global file: kf_empmr
(PID.TID 0000.0001)  MDSREADFIELD: opening global file: kf_sst
(PID.TID 0000.0001)  MDSREADFIELD: opening global file: kf_sst
(PID.TID 0000.0001)  MDSREADFIELD: opening global file: kf_sss
(PID.TID 0000.0001)  MDSREADFIELD: opening global file: kf_sss
(PID.TID 0000.0001)  MDSREADFIELD: opening global file: kf_sw
(PID.TID 0000.0001)  MDSREADFIELD: opening global file: kf_sw
 cg2d: Sum(rhs),rhsMax =   1.56819002228303E-15  5.55580894999383E-01
(PID.TID 0000.0001)                    cg2d_init_res =    9.18792760418024E-01
(PID.TID 0000.0001)                       cg2d_iters =    47
(PID.TID 0000.0001)                         cg2d_res =    7.05573642780588E-14
(PID.TID 0000.0001) // =======================================================
(PID.TID 0000.0001) // Begin MONITOR dynamic field statistics
(PID.TID 0000.0001) // =======================================================
(PID.TID 0000.0001) %MON time_tsnumber                =                     2
(PID.TID 0000.0001) %MON time_secondsf                =   7.2000000000000E+03
(PID.TID 0000.0001) %MON time_secondsi                =                  7200
(PID.TID 0000.0001) %MON dynstat_eta_max              =   1.4747680131363E-01
(PID.TID 0000.0001) %MON dynstat_eta_min              =  -1.8208426967038E-01
(PID.TID 0000.0001) %MON dynstat_eta_mean             =  -2.9403035697134E-18
(PID.TID 0000.0001) %MON dynstat_eta_sd               =   6.7128136850643E-02
(PID.TID 0000.0001) %MON dynstat_eta_del2             =   4.6952457498336E-03
(PID.TID 0000.0001) %MON dynstat_uvel_max             =   1.0408433363861E-01
(PID.TID 0000.0001) %MON dynstat_uvel_min             =  -7.3099133249719E-02
(PID.TID 0000.0001) %MON dynstat_uvel_mean            =  -2.1353969480998E-03
(PID.TID 0000.0001) %MON dynstat_uvel_sd              =   2.6836257696223E-03
(PID.TID 0000.0001) %MON dynstat_uvel_del2            =   8.2511967122236E-04
(PID.TID 0000.0001) %MON dynstat_vvel_max             =   2.1344598039356E-02
(PID.TID 0000.0001) %MON dynstat_vvel_min             =  -5.3407811788346E-02
(PID.TID 0000.0001) %MON dynstat_vvel_mean            =  -2.0984182044174E-04
(PID.TID 0000.0001) %MON dynstat_vvel_sd              =   2.9876104915755E-03
(PID.TID 0000.0001) %MON dynstat_vvel_del2            =   1.1679612984361E-03
(PID.TID 0000.0001) %MON dynstat_wvel_max             =   4.7438450209647E-05
(PID.TID 0000.0001) %MON dynstat_wvel_min             =  -9.2458472497103E-05
(PID.TID 0000.0001) %MON dynstat_wvel_mean            =   5.0161049149673E-23
(PID.TID 0000.0001) %MON dynstat_wvel_sd              =   1.2602961711356E-05
(PID.TID 0000.0001) %MON dynstat_wvel_del2            =   3.1493538012931E-06
(PID.TID 0000.0001) %MON dynstat_theta_max            =   2.6075142164144E+01
(PID.TID 0000.0001) %MON dynstat_theta_min            =   1.8064390241864E+00
(PID.TID 0000.0001) %MON dynstat_theta_mean           =   5.4784377028354E+00
(PID.TID 0000.0001) %MON dynstat_theta_sd             =   4.5924854556097E+00
(PID.TID 0000.0001) %MON dynstat_theta_del2           =   5.0854263599903E-02
(PID.TID 0000.0001) %MON dynstat_salt_max             =   3.7400673032955E+01
(PID.TID 0000.0001) %MON dynstat_salt_min             =   3.4726779359477E+01
(PID.TID 0000.0001) %MON dynstat_salt_mean            =   3.5157555144761E+01
(PID.TID 0000.0001) %MON dynstat_salt_sd              =   4.1376901300905E-01
(PID.TID 0000.0001) %MON dynstat_salt_del2            =   1.2629248857615E-02
(PID.TID 0000.0001) %MON advcfl_uvel_max              =   2.1683953976990E-03
(PID.TID 0000.0001) %MON advcfl_vvel_max              =   8.6469010601292E-04
(PID.TID 0000.0001) %MON advcfl_wvel_max              =   2.0654305340174E-02
(PID.TID 0000.0001) %MON advcfl_W_hf_max              =   2.0528089814574E-02
(PID.TID 0000.0001) %MON ke_max                       =   3.1033625744989E-03
(PID.TID 0000.0001) %MON ke_mean                      =   5.1175229589641E-05
(PID.TID 0000.0001) %MON ke_volint                    =   3.3271182967761E+11
(PID.TID 0000.0001) %MON ke_volmean                   =   9.2349442349158E-06
(PID.TID 0000.0001) // =======================================================
(PID.TID 0000.0001) // End MONITOR dynamic field statistics
(PID.TID 0000.0001) // =======================================================
 cg2d: Sum(rhs),rhsMax =   2.33146835171283E-15  5.83480922429410E-01
(PID.TID 0000.0001)                    cg2d_init_res =    5.49843674778361E-01
(PID.TID 0000.0001)                       cg2d_iters =    46
(PID.TID 0000.0001)                         cg2d_res =    7.64355149564559E-14
(PID.TID 0000.0001) // =======================================================
(PID.TID 0000.0001) // Begin MONITOR dynamic field statistics
(PID.TID 0000.0001) // =======================================================
(PID.TID 0000.0001) %MON time_tsnumber                =                     3
(PID.TID 0000.0001) %MON time_secondsf                =   1.0800000000000E+04
(PID.TID 0000.0001) %MON time_secondsi                =                 10800
(PID.TID 0000.0001) %MON dynstat_eta_max              =   1.8595228854127E-01
(PID.TID 0000.0001) %MON dynstat_eta_min              =  -2.3829516680975E-01
(PID.TID 0000.0001) %MON dynstat_eta_mean             =   5.4290489489292E-18
(PID.TID 0000.0001) %MON dynstat_eta_sd               =   9.1327140161065E-02
(PID.TID 0000.0001) %MON dynstat_eta_del2             =   4.4580101655720E-03
(PID.TID 0000.0001) %MON dynstat_uvel_max             =   1.4697163827944E-01
(PID.TID 0000.0001) %MON dynstat_uvel_min             =  -9.6705453731559E-02
(PID.TID 0000.0001) %MON dynstat_uvel_mean            =  -1.6505300393736E-03
(PID.TID 0000.0001) %MON dynstat_uvel_sd              =   3.7386774620038E-03
(PID.TID 0000.0001) %MON dynstat_uvel_del2            =   1.2134849431786E-03
(PID.TID 0000.0001) %MON dynstat_vvel_max             =   3.1359585188255E-02
(PID.TID 0000.0001) %MON dynstat_vvel_min             =  -7.2709701157578E-02
(PID.TID 0000.0001) %MON dynstat_vvel_mean            =  -4.2591051264019E-04
(PID.TID 0000.0001) %MON dynstat_vvel_sd              =   4.2064874904241E-03
(PID.TID 0000.0001) %MON dynstat_vvel_del2            =   1.6594802655338E-03
(PID.TID 0000.0001) %MON dynstat_wvel_max             =   7.5984121261977E-05
(PID.TID 0000.0001) %MON dynstat_wvel_min             =  -1.4301003071032E-04
(PID.TID 0000.0001) %MON dynstat_wvel_mean            =  -1.3094749807976E-24
(PID.TID 0000.0001) %MON dynstat_wvel_sd              =   1.9442451156115E-05
(PID.TID 0000.0001) %MON dynstat_wvel_del2            =   4.5241561209539E-06
(PID.TID 0000.0001) %MON dynstat_theta_max            =   2.6073527663077E+01
(PID.TID 0000.0001) %MON dynstat_theta_min            =   1.8064395683377E+00
(PID.TID 0000.0001) %MON dynstat_theta_mean           =   5.4784462567170E+00
(PID.TID 0000.0001) %MON dynstat_theta_sd             =   4.5925125250630E+00
(PID.TID 0000.0001) %MON dynstat_theta_del2           =   5.0828120010250E-02
(PID.TID 0000.0001) %MON dynstat_salt_max             =   3.7400692070090E+01
(PID.TID 0000.0001) %MON dynstat_salt_min             =   3.4726785376275E+01
(PID.TID 0000.0001) %MON dynstat_salt_mean            =   3.5157554524410E+01
(PID.TID 0000.0001) %MON dynstat_salt_sd              =   4.1376546725110E-01
(PID.TID 0000.0001) %MON dynstat_salt_del2            =   1.2629078971302E-02
(PID.TID 0000.0001) %MON advcfl_uvel_max              =   3.0618692832676E-03
(PID.TID 0000.0001) %MON advcfl_vvel_max              =   1.1771940676258E-03
(PID.TID 0000.0001) %MON advcfl_wvel_max              =   1.6837673865355E-02
(PID.TID 0000.0001) %MON advcfl_W_hf_max              =   2.0933154590242E-02
(PID.TID 0000.0001) %MON ke_max                       =   6.2722590826406E-03
(PID.TID 0000.0001) %MON ke_mean                      =   1.0263977098082E-04
(PID.TID 0000.0001) %MON ke_volint                    =   5.5375952618046E+11
(PID.TID 0000.0001) %MON ke_volmean                   =   1.5370473447804E-05
(PID.TID 0000.0001) // =======================================================
(PID.TID 0000.0001) // End MONITOR dynamic field statistics
(PID.TID 0000.0001) // =======================================================
 cg2d: Sum(rhs),rhsMax =  -3.96904731303493E-15  6.07089383270527E-01
(PID.TID 0000.0001)                    cg2d_init_res =    2.97163864712109E-01
(PID.TID 0000.0001)                       cg2d_iters =    47
(PID.TID 0000.0001)                         cg2d_res =    5.03565181029542E-14
(PID.TID 0000.0001) // =======================================================
(PID.TID 0000.0001) // Begin MONITOR dynamic field statistics
(PID.TID 0000.0001) // =======================================================
(PID.TID 0000.0001) %MON time_tsnumber                =                     4
(PID.TID 0000.0001) %MON time_secondsf                =   1.4400000000000E+04
(PID.TID 0000.0001) %MON time_secondsi                =                 14400
(PID.TID 0000.0001) %MON dynstat_eta_max              =   1.9627230979925E-01
(PID.TID 0000.0001) %MON dynstat_eta_min              =  -2.7139002269898E-01
(PID.TID 0000.0001) %MON dynstat_eta_mean             =   2.8970411646193E-17
(PID.TID 0000.0001) %MON dynstat_eta_sd               =   1.0331227518243E-01
(PID.TID 0000.0001) %MON dynstat_eta_del2             =   4.4226158614423E-03
(PID.TID 0000.0001) %MON dynstat_uvel_max             =   1.7730273890601E-01
(PID.TID 0000.0001) %MON dynstat_uvel_min             =  -1.1582955898687E-01
(PID.TID 0000.0001) %MON dynstat_uvel_mean            =  -8.1543733930787E-04
(PID.TID 0000.0001) %MON dynstat_uvel_sd              =   4.7556366722817E-03
(PID.TID 0000.0001) %MON dynstat_uvel_del2            =   1.6003420407217E-03
(PID.TID 0000.0001) %MON dynstat_vvel_max             =   3.9315084195005E-02
(PID.TID 0000.0001) %MON dynstat_vvel_min             =  -9.0546459775737E-02
(PID.TID 0000.0001) %MON dynstat_vvel_mean            =  -6.6445374810394E-04
(PID.TID 0000.0001) %MON dynstat_vvel_sd              =   5.2287150777739E-03
(PID.TID 0000.0001) %MON dynstat_vvel_del2            =   2.0506466872944E-03
(PID.TID 0000.0001) %MON dynstat_wvel_max             =   9.8737538775482E-05
(PID.TID 0000.0001) %MON dynstat_wvel_min             =  -1.7306547523237E-04
(PID.TID 0000.0001) %MON dynstat_wvel_mean            =   2.2994037193958E-22
(PID.TID 0000.0001) %MON dynstat_wvel_sd              =   2.5199775036750E-05
(PID.TID 0000.0001) %MON dynstat_wvel_del2            =   6.0639272977989E-06
(PID.TID 0000.0001) %MON dynstat_theta_max            =   2.6071812802125E+01
(PID.TID 0000.0001) %MON dynstat_theta_min            =   1.8064406152496E+00
(PID.TID 0000.0001) %MON dynstat_theta_mean           =   5.4784564072857E+00
(PID.TID 0000.0001) %MON dynstat_theta_sd             =   4.5925444975127E+00
(PID.TID 0000.0001) %MON dynstat_theta_del2           =   5.0797583654546E-02
(PID.TID 0000.0001) %MON dynstat_salt_max             =   3.7400960444962E+01
(PID.TID 0000.0001) %MON dynstat_salt_min             =   3.4726790540921E+01
(PID.TID 0000.0001) %MON dynstat_salt_mean            =   3.5157555200452E+01
(PID.TID 0000.0001) %MON dynstat_salt_sd              =   4.1376635840801E-01
(PID.TID 0000.0001) %MON dynstat_salt_del2            =   1.2628702260953E-02
(PID.TID 0000.0001) %MON advcfl_uvel_max              =   3.6937589894952E-03
(PID.TID 0000.0001) %MON advcfl_vvel_max              =   1.4659770786501E-03
(PID.TID 0000.0001) %MON advcfl_wvel_max              =   1.4131636006761E-02
(PID.TID 0000.0001) %MON advcfl_W_hf_max              =   1.9921367516794E-02
(PID.TID 0000.0001) %MON ke_max                       =   9.3180678757276E-03
(PID.TID 0000.0001) %MON ke_mean                      =   1.6395287514207E-04
(PID.TID 0000.0001) %MON ke_volint                    =   8.1719696370006E+11
(PID.TID 0000.0001) %MON ke_volmean                   =   2.2682597117227E-05
(PID.TID 0000.0001) // =======================================================
(PID.TID 0000.0001) // End MONITOR dynamic field statistics
(PID.TID 0000.0001) // =======================================================
 cg2d: Sum(rhs),rhsMax =  -1.14075415780235E-14  6.21143979820127E-01
(PID.TID 0000.0001)                    cg2d_init_res =    2.45540795462221E-01
(PID.TID 0000.0001)                       cg2d_iters =    47
(PID.TID 0000.0001)                         cg2d_res =    3.93200536637704E-14
(PID.TID 0000.0001) // =======================================================
(PID.TID 0000.0001) // Begin MONITOR dynamic field statistics
(PID.TID 0000.0001) // =======================================================
(PID.TID 0000.0001) %MON time_tsnumber                =                     5
(PID.TID 0000.0001) %MON time_secondsf                =   1.8000000000000E+04
(PID.TID 0000.0001) %MON time_secondsi                =                 18000
(PID.TID 0000.0001) %MON dynstat_eta_max              =   1.8812326783074E-01
(PID.TID 0000.0001) %MON dynstat_eta_min              =  -2.8341184534020E-01
(PID.TID 0000.0001) %MON dynstat_eta_mean             =   4.1196395937369E-17
(PID.TID 0000.0001) %MON dynstat_eta_sd               =   1.0493859670807E-01
(PID.TID 0000.0001) %MON dynstat_eta_del2             =   4.5212698291591E-03
(PID.TID 0000.0001) %MON dynstat_uvel_max             =   1.7905999478878E-01
(PID.TID 0000.0001) %MON dynstat_uvel_min             =  -1.3243692526659E-01
(PID.TID 0000.0001) %MON dynstat_uvel_mean            =  -5.2546580879076E-05
(PID.TID 0000.0001) %MON dynstat_uvel_sd              =   5.7447419647279E-03
(PID.TID 0000.0001) %MON dynstat_uvel_del2            =   1.9819217106930E-03
(PID.TID 0000.0001) %MON dynstat_vvel_max             =   4.4824282891202E-02
(PID.TID 0000.0001) %MON dynstat_vvel_min             =  -1.0866419352307E-01
(PID.TID 0000.0001) %MON dynstat_vvel_mean            =  -7.6634902784648E-04
(PID.TID 0000.0001) %MON dynstat_vvel_sd              =   6.0249467176149E-03
(PID.TID 0000.0001) %MON dynstat_vvel_del2            =   2.3263018177764E-03
(PID.TID 0000.0001) %MON dynstat_wvel_max             =   1.1374309560968E-04
(PID.TID 0000.0001) %MON dynstat_wvel_min             =  -1.8464100019430E-04
(PID.TID 0000.0001) %MON dynstat_wvel_mean            =   1.2061638448535E-22
(PID.TID 0000.0001) %MON dynstat_wvel_sd              =   2.9997499059523E-05
(PID.TID 0000.0001) %MON dynstat_wvel_del2            =   7.3590679347744E-06
(PID.TID 0000.0001) %MON dynstat_theta_max            =   2.6070067566659E+01
(PID.TID 0000.0001) %MON dynstat_theta_min            =   1.8064422271982E+00
(PID.TID 0000.0001) %MON dynstat_theta_mean           =   5.4784684366460E+00
(PID.TID 0000.0001) %MON dynstat_theta_sd             =   4.5925826499810E+00
(PID.TID 0000.0001) %MON dynstat_theta_del2           =   5.0765563557470E-02
(PID.TID 0000.0001) %MON dynstat_salt_max             =   3.7401224064711E+01
(PID.TID 0000.0001) %MON dynstat_salt_min             =   3.4726794346571E+01
(PID.TID 0000.0001) %MON dynstat_salt_mean            =   3.5157556779621E+01
(PID.TID 0000.0001) %MON dynstat_salt_sd              =   4.1377004286777E-01
(PID.TID 0000.0001) %MON dynstat_salt_del2            =   1.2628615225058E-02
(PID.TID 0000.0001) %MON advcfl_uvel_max              =   3.7303680106185E-03
(PID.TID 0000.0001) %MON advcfl_vvel_max              =   1.7593091697828E-03
(PID.TID 0000.0001) %MON advcfl_wvel_max              =   8.8164549551922E-03
(PID.TID 0000.0001) %MON advcfl_W_hf_max              =   1.4095940383600E-02
(PID.TID 0000.0001) %MON ke_max                       =   9.9911988819135E-03
(PID.TID 0000.0001) %MON ke_mean                      =   2.2891183171857E-04
(PID.TID 0000.0001) %MON ke_volint                    =   1.1190093427160E+12
(PID.TID 0000.0001) %MON ke_volmean                   =   3.1059878118388E-05
(PID.TID 0000.0001) // =======================================================
(PID.TID 0000.0001) // End MONITOR dynamic field statistics
(PID.TID 0000.0001) // =======================================================
 cg2d: Sum(rhs),rhsMax =  -1.17128529097954E-14  6.21676459183296E-01
(PID.TID 0000.0001)                    cg2d_init_res =    2.81016270495506E-01
(PID.TID 0000.0001)                       cg2d_iters =    47
(PID.TID 0000.0001)                         cg2d_res =    4.15711300782744E-14
(PID.TID 0000.0001) // =======================================================
(PID.TID 0000.0001) // Begin MONITOR dynamic field statistics
(PID.TID 0000.0001) // =======================================================
(PID.TID 0000.0001) %MON time_tsnumber                =                     6
(PID.TID 0000.0001) %MON time_secondsf                =   2.1600000000000E+04
(PID.TID 0000.0001) %MON time_secondsi                =                 21600
(PID.TID 0000.0001) %MON dynstat_eta_max              =   1.8435079377067E-01
(PID.TID 0000.0001) %MON dynstat_eta_min              =  -2.7975744250099E-01
(PID.TID 0000.0001) %MON dynstat_eta_mean             =   4.2197212478477E-17
(PID.TID 0000.0001) %MON dynstat_eta_sd               =   1.0063707908861E-01
(PID.TID 0000.0001) %MON dynstat_eta_del2             =   4.5944647098380E-03
(PID.TID 0000.0001) %MON dynstat_uvel_max             =   1.6536914474218E-01
(PID.TID 0000.0001) %MON dynstat_uvel_min             =  -1.4727343686767E-01
(PID.TID 0000.0001) %MON dynstat_uvel_mean            =   4.2995914541741E-04
(PID.TID 0000.0001) %MON dynstat_uvel_sd              =   6.6714851275844E-03
(PID.TID 0000.0001) %MON dynstat_uvel_del2            =   2.3477255967048E-03
(PID.TID 0000.0001) %MON dynstat_vvel_max             =   4.7608995311364E-02
(PID.TID 0000.0001) %MON dynstat_vvel_min             =  -1.2111555438941E-01
(PID.TID 0000.0001) %MON dynstat_vvel_mean            =  -6.5907413725863E-04
(PID.TID 0000.0001) %MON dynstat_vvel_sd              =   6.5977163753520E-03
(PID.TID 0000.0001) %MON dynstat_vvel_del2            =   2.4774886965324E-03
(PID.TID 0000.0001) %MON dynstat_wvel_max             =   1.2005647251190E-04
(PID.TID 0000.0001) %MON dynstat_wvel_min             =  -1.7855357409118E-04
(PID.TID 0000.0001) %MON dynstat_wvel_mean            =   3.8354135785107E-22
(PID.TID 0000.0001) %MON dynstat_wvel_sd              =   3.3536209723189E-05
(PID.TID 0000.0001) %MON dynstat_wvel_del2            =   8.2466432324831E-06
(PID.TID 0000.0001) %MON dynstat_theta_max            =   2.6075021815266E+01
(PID.TID 0000.0001) %MON dynstat_theta_min            =   1.8064442715262E+00
(PID.TID 0000.0001) %MON dynstat_theta_mean           =   5.4784826027042E+00
(PID.TID 0000.0001) %MON dynstat_theta_sd             =   4.5926282331265E+00
(PID.TID 0000.0001) %MON dynstat_theta_del2           =   5.0736845889015E-02
(PID.TID 0000.0001) %MON dynstat_salt_max             =   3.7401486053236E+01
(PID.TID 0000.0001) %MON dynstat_salt_min             =   3.4726796682486E+01
(PID.TID 0000.0001) %MON dynstat_salt_mean            =   3.5157558830998E+01
(PID.TID 0000.0001) %MON dynstat_salt_sd              =   4.1377512136095E-01
(PID.TID 0000.0001) %MON dynstat_salt_del2            =   1.2628551865135E-02
(PID.TID 0000.0001) %MON advcfl_uvel_max              =   3.4451456799005E-03
(PID.TID 0000.0001) %MON advcfl_vvel_max              =   1.9609008131587E-03
(PID.TID 0000.0001) %MON advcfl_wvel_max              =   4.3018589431313E-03
(PID.TID 0000.0001) %MON advcfl_W_hf_max              =   7.5077957291755E-03
(PID.TID 0000.0001) %MON ke_max                       =   1.0809063743482E-02
(PID.TID 0000.0001) %MON ke_mean                      =   2.9256816843584E-04
(PID.TID 0000.0001) %MON ke_volint                    =   1.4205878659554E+12
(PID.TID 0000.0001) %MON ke_volmean                   =   3.9430668081771E-05
(PID.TID 0000.0001) // =======================================================
(PID.TID 0000.0001) // End MONITOR dynamic field statistics
(PID.TID 0000.0001) // =======================================================
 cg2d: Sum(rhs),rhsMax =  -1.20597976049908E-14  6.11135932471265E-01
(PID.TID 0000.0001)                    cg2d_init_res =    2.63091072371787E-01
(PID.TID 0000.0001)                       cg2d_iters =    47
(PID.TID 0000.0001)                         cg2d_res =    4.30519676626708E-14
(PID.TID 0000.0001) // =======================================================
(PID.TID 0000.0001) // Begin MONITOR dynamic field statistics
(PID.TID 0000.0001) // =======================================================
(PID.TID 0000.0001) %MON time_tsnumber                =                     7
(PID.TID 0000.0001) %MON time_secondsf                =   2.5200000000000E+04
(PID.TID 0000.0001) %MON time_secondsi                =                 25200
(PID.TID 0000.0001) %MON dynstat_eta_max              =   1.7621675559426E-01
(PID.TID 0000.0001) %MON dynstat_eta_min              =  -2.6854247084791E-01
(PID.TID 0000.0001) %MON dynstat_eta_mean             =   3.8142108847523E-17
(PID.TID 0000.0001) %MON dynstat_eta_sd               =   9.4044374900847E-02
(PID.TID 0000.0001) %MON dynstat_eta_del2             =   4.6225795181597E-03
(PID.TID 0000.0001) %MON dynstat_uvel_max             =   1.4579491089449E-01
(PID.TID 0000.0001) %MON dynstat_uvel_min             =  -1.6053841809039E-01
(PID.TID 0000.0001) %MON dynstat_uvel_mean            =   6.0829392959562E-04
(PID.TID 0000.0001) %MON dynstat_uvel_sd              =   7.4954654933616E-03
(PID.TID 0000.0001) %MON dynstat_uvel_del2            =   2.6830796180310E-03
(PID.TID 0000.0001) %MON dynstat_vvel_max             =   4.9447727070371E-02
(PID.TID 0000.0001) %MON dynstat_vvel_min             =  -1.2700698177363E-01
(PID.TID 0000.0001) %MON dynstat_vvel_mean            =  -3.7951330465882E-04
(PID.TID 0000.0001) %MON dynstat_vvel_sd              =   6.9721258447291E-03
(PID.TID 0000.0001) %MON dynstat_vvel_del2            =   2.5126177124097E-03
(PID.TID 0000.0001) %MON dynstat_wvel_max             =   1.3288966884347E-04
(PID.TID 0000.0001) %MON dynstat_wvel_min             =  -1.5753918398214E-04
(PID.TID 0000.0001) %MON dynstat_wvel_mean            =   8.4617092584975E-23
(PID.TID 0000.0001) %MON dynstat_wvel_sd              =   3.5672461824359E-05
(PID.TID 0000.0001) %MON dynstat_wvel_del2            =   8.7010487238308E-06
(PID.TID 0000.0001) %MON dynstat_theta_max            =   2.6081689357751E+01
(PID.TID 0000.0001) %MON dynstat_theta_min            =   1.8064465123701E+00
(PID.TID 0000.0001) %MON dynstat_theta_mean           =   5.4784990730428E+00
(PID.TID 0000.0001) %MON dynstat_theta_sd             =   4.5926821404640E+00
(PID.TID 0000.0001) %MON dynstat_theta_del2           =   5.0716823369844E-02
(PID.TID 0000.0001) %MON dynstat_salt_max             =   3.7401749861185E+01
(PID.TID 0000.0001) %MON dynstat_salt_min             =   3.4726797966194E+01
(PID.TID 0000.0001) %MON dynstat_salt_mean            =   3.5157560967918E+01
(PID.TID 0000.0001) %MON dynstat_salt_sd              =   4.1378053278073E-01
(PID.TID 0000.0001) %MON dynstat_salt_del2            =   1.2628514712375E-02
(PID.TID 0000.0001) %MON advcfl_uvel_max              =   3.0373544484537E-03
(PID.TID 0000.0001) %MON advcfl_vvel_max              =   2.0562849676269E-03
(PID.TID 0000.0001) %MON advcfl_wvel_max              =   6.3534511778545E-03
(PID.TID 0000.0001) %MON advcfl_W_hf_max              =   8.2818775447918E-03
(PID.TID 0000.0001) %MON ke_max                       =   1.2825165057417E-02
(PID.TID 0000.0001) %MON ke_mean                      =   3.5127988536453E-04
(PID.TID 0000.0001) %MON ke_volint                    =   1.6887400638688E+12
(PID.TID 0000.0001) %MON ke_volmean                   =   4.6873657399583E-05
(PID.TID 0000.0001) // =======================================================
(PID.TID 0000.0001) // End MONITOR dynamic field statistics
(PID.TID 0000.0001) // =======================================================
 cg2d: Sum(rhs),rhsMax =  -9.45077349712165E-15  5.94932675704089E-01
(PID.TID 0000.0001)                    cg2d_init_res =    2.04039840901601E-01
(PID.TID 0000.0001)                       cg2d_iters =    47
(PID.TID 0000.0001)                         cg2d_res =    3.87188807300848E-14
(PID.TID 0000.0001) // =======================================================
(PID.TID 0000.0001) // Begin MONITOR dynamic field statistics
(PID.TID 0000.0001) // =======================================================
(PID.TID 0000.0001) %MON time_tsnumber                =                     8
(PID.TID 0000.0001) %MON time_secondsf                =   2.8800000000000E+04
(PID.TID 0000.0001) %MON time_secondsi                =                 28800
(PID.TID 0000.0001) %MON dynstat_eta_max              =   1.6654868274185E-01
(PID.TID 0000.0001) %MON dynstat_eta_min              =  -2.5257947952331E-01
(PID.TID 0000.0001) %MON dynstat_eta_mean             =   3.4764847412704E-17
(PID.TID 0000.0001) %MON dynstat_eta_sd               =   8.6936268874123E-02
(PID.TID 0000.0001) %MON dynstat_eta_del2             =   4.6354983779354E-03
(PID.TID 0000.0001) %MON dynstat_uvel_max             =   1.2081176117857E-01
(PID.TID 0000.0001) %MON dynstat_uvel_min             =  -1.7216924467762E-01
(PID.TID 0000.0001) %MON dynstat_uvel_mean            =   5.6371032331751E-04
(PID.TID 0000.0001) %MON dynstat_uvel_sd              =   8.1887145632861E-03
(PID.TID 0000.0001) %MON dynstat_uvel_del2            =   2.9839256380253E-03
(PID.TID 0000.0001) %MON dynstat_vvel_max             =   5.2726637518613E-02
(PID.TID 0000.0001) %MON dynstat_vvel_min             =  -1.2620466053602E-01
(PID.TID 0000.0001) %MON dynstat_vvel_mean            =  -3.4799308512518E-05
(PID.TID 0000.0001) %MON dynstat_vvel_sd              =   7.1861908653123E-03
(PID.TID 0000.0001) %MON dynstat_vvel_del2            =   2.4510342817242E-03
(PID.TID 0000.0001) %MON dynstat_wvel_max             =   1.3827799343391E-04
(PID.TID 0000.0001) %MON dynstat_wvel_min             =  -1.5784456836648E-04
(PID.TID 0000.0001) %MON dynstat_wvel_mean            =  -1.9116316840166E-22
(PID.TID 0000.0001) %MON dynstat_wvel_sd              =   3.6483116450930E-05
(PID.TID 0000.0001) %MON dynstat_wvel_del2            =   8.7175667281678E-06
(PID.TID 0000.0001) %MON dynstat_theta_max            =   2.6088410869057E+01
(PID.TID 0000.0001) %MON dynstat_theta_min            =   1.8064487561209E+00
(PID.TID 0000.0001) %MON dynstat_theta_mean           =   5.4785176954403E+00
(PID.TID 0000.0001) %MON dynstat_theta_sd             =   4.5927440281715E+00
(PID.TID 0000.0001) %MON dynstat_theta_del2           =   5.0706817178360E-02
(PID.TID 0000.0001) %MON dynstat_salt_max             =   3.7402020372367E+01
(PID.TID 0000.0001) %MON dynstat_salt_min             =   3.4726798685854E+01
(PID.TID 0000.0001) %MON dynstat_salt_mean            =   3.5157562896989E+01
(PID.TID 0000.0001) %MON dynstat_salt_sd              =   4.1378547972171E-01
(PID.TID 0000.0001) %MON dynstat_salt_del2            =   1.2629417598249E-02
(PID.TID 0000.0001) %MON advcfl_uvel_max              =   2.8858084533831E-03
(PID.TID 0000.0001) %MON advcfl_vvel_max              =   2.0432951218951E-03
(PID.TID 0000.0001) %MON advcfl_wvel_max              =   6.3626756317508E-03
(PID.TID 0000.0001) %MON advcfl_W_hf_max              =   1.0476342173904E-02
(PID.TID 0000.0001) %MON ke_max                       =   1.4783485133624E-02
(PID.TID 0000.0001) %MON ke_mean                      =   4.0228656658260E-04
(PID.TID 0000.0001) %MON ke_volint                    =   1.9099613594447E+12
(PID.TID 0000.0001) %MON ke_volmean                   =   5.3014005129927E-05
(PID.TID 0000.0001) // =======================================================
(PID.TID 0000.0001) // End MONITOR dynamic field statistics
(PID.TID 0000.0001) // =======================================================
 cg2d: Sum(rhs),rhsMax =  -8.13932254928318E-15  5.77956523934976E-01
(PID.TID 0000.0001)                    cg2d_init_res =    1.56306336125933E-01
(PID.TID 0000.0001)                       cg2d_iters =    46
(PID.TID 0000.0001)                         cg2d_res =    6.18811012059554E-14
(PID.TID 0000.0001) // =======================================================
(PID.TID 0000.0001) // Begin MONITOR dynamic field statistics
(PID.TID 0000.0001) // =======================================================
(PID.TID 0000.0001) %MON time_tsnumber                =                     9
(PID.TID 0000.0001) %MON time_secondsf                =   3.2400000000000E+04
(PID.TID 0000.0001) %MON time_secondsi                =                 32400
(PID.TID 0000.0001) %MON dynstat_eta_max              =   1.5757371759268E-01
(PID.TID 0000.0001) %MON dynstat_eta_min              =  -2.3627632226421E-01
(PID.TID 0000.0001) %MON dynstat_eta_mean             =   2.9958773731060E-17
(PID.TID 0000.0001) %MON dynstat_eta_sd               =   8.0241779495893E-02
(PID.TID 0000.0001) %MON dynstat_eta_del2             =   4.6097271762385E-03
(PID.TID 0000.0001) %MON dynstat_uvel_max             =   9.4734069143562E-02
(PID.TID 0000.0001) %MON dynstat_uvel_min             =  -1.8182140182450E-01
(PID.TID 0000.0001) %MON dynstat_uvel_mean            =   4.0525451827917E-04
(PID.TID 0000.0001) %MON dynstat_uvel_sd              =   8.7446777897541E-03
(PID.TID 0000.0001) %MON dynstat_uvel_del2            =   3.2467628300499E-03
(PID.TID 0000.0001) %MON dynstat_vvel_max             =   6.1597844535505E-02
(PID.TID 0000.0001) %MON dynstat_vvel_min             =  -1.2372315327331E-01
(PID.TID 0000.0001) %MON dynstat_vvel_mean            =   2.5727205908001E-04
(PID.TID 0000.0001) %MON dynstat_vvel_sd              =   7.2818129726884E-03
(PID.TID 0000.0001) %MON dynstat_vvel_del2            =   2.3274316612853E-03
(PID.TID 0000.0001) %MON dynstat_wvel_max             =   1.3877310707562E-04
(PID.TID 0000.0001) %MON dynstat_wvel_min             =  -1.6481709269840E-04
(PID.TID 0000.0001) %MON dynstat_wvel_mean            =  -1.2282102514974E-22
(PID.TID 0000.0001) %MON dynstat_wvel_sd              =   3.6261922010551E-05
(PID.TID 0000.0001) %MON dynstat_wvel_del2            =   8.3395480339997E-06
(PID.TID 0000.0001) %MON dynstat_theta_max            =   2.6095218438028E+01
(PID.TID 0000.0001) %MON dynstat_theta_min            =   1.8064508967732E+00
(PID.TID 0000.0001) %MON dynstat_theta_mean           =   5.4785378851738E+00
(PID.TID 0000.0001) %MON dynstat_theta_sd             =   4.5928118660366E+00
(PID.TID 0000.0001) %MON dynstat_theta_del2           =   5.0707401668852E-02
(PID.TID 0000.0001) %MON dynstat_salt_max             =   3.7402302818979E+01
(PID.TID 0000.0001) %MON dynstat_salt_min             =   3.4726799229148E+01
(PID.TID 0000.0001) %MON dynstat_salt_mean            =   3.5157564475805E+01
(PID.TID 0000.0001) %MON dynstat_salt_sd              =   4.1378953679748E-01
(PID.TID 0000.0001) %MON dynstat_salt_del2            =   1.2630629643389E-02
(PID.TID 0000.0001) %MON advcfl_uvel_max              =   3.0475927298955E-03
(PID.TID 0000.0001) %MON advcfl_vvel_max              =   2.0031187000156E-03
(PID.TID 0000.0001) %MON advcfl_wvel_max              =   5.5790405730536E-03
(PID.TID 0000.0001) %MON advcfl_W_hf_max              =   1.1158081146107E-02
(PID.TID 0000.0001) %MON ke_max                       =   1.6584907504679E-02
(PID.TID 0000.0001) %MON ke_mean                      =   4.4492572602062E-04
(PID.TID 0000.0001) %MON ke_volint                    =   2.0831012928228E+12
(PID.TID 0000.0001) %MON ke_volmean                   =   5.7819778435711E-05
(PID.TID 0000.0001) // =======================================================
(PID.TID 0000.0001) // End MONITOR dynamic field statistics
(PID.TID 0000.0001) // =======================================================
 cg2d: Sum(rhs),rhsMax =  -1.44467771079348E-14  5.63257298809467E-01
(PID.TID 0000.0001)                    cg2d_init_res =    1.44645358149061E-01
(PID.TID 0000.0001)                       cg2d_iters =    46
(PID.TID 0000.0001)                         cg2d_res =    8.83095393387033E-14
(PID.TID 0000.0001) // =======================================================
(PID.TID 0000.0001) // Begin MONITOR dynamic field statistics
(PID.TID 0000.0001) // =======================================================
(PID.TID 0000.0001) %MON time_tsnumber                =                    10
(PID.TID 0000.0001) %MON time_secondsf                =   3.6000000000000E+04
(PID.TID 0000.0001) %MON time_secondsi                =                 36000
(PID.TID 0000.0001) %MON dynstat_eta_max              =   1.5079362990323E-01
(PID.TID 0000.0001) %MON dynstat_eta_min              =  -2.2243263107151E-01
(PID.TID 0000.0001) %MON dynstat_eta_mean             =   4.8830009868699E-17
(PID.TID 0000.0001) %MON dynstat_eta_sd               =   7.4949871202385E-02
(PID.TID 0000.0001) %MON dynstat_eta_del2             =   4.5693330968449E-03
(PID.TID 0000.0001) %MON dynstat_uvel_max             =   6.9217365884931E-02
(PID.TID 0000.0001) %MON dynstat_uvel_min             =  -1.9159270164138E-01
(PID.TID 0000.0001) %MON dynstat_uvel_mean            =   2.2123189037486E-04
(PID.TID 0000.0001) %MON dynstat_uvel_sd              =   9.1720563580839E-03
(PID.TID 0000.0001) %MON dynstat_uvel_del2            =   3.4444712306629E-03
(PID.TID 0000.0001) %MON dynstat_vvel_max             =   6.8874089155789E-02
(PID.TID 0000.0001) %MON dynstat_vvel_min             =  -1.2587604960981E-01
(PID.TID 0000.0001) %MON dynstat_vvel_mean            =   4.1695934080368E-04
(PID.TID 0000.0001) %MON dynstat_vvel_sd              =   7.2970769961706E-03
(PID.TID 0000.0001) %MON dynstat_vvel_del2            =   2.2006230809064E-03
(PID.TID 0000.0001) %MON dynstat_wvel_max             =   1.4562806528146E-04
(PID.TID 0000.0001) %MON dynstat_wvel_min             =  -1.6669426958667E-04
(PID.TID 0000.0001) %MON dynstat_wvel_mean            =  -7.5619561191098E-22
(PID.TID 0000.0001) %MON dynstat_wvel_sd              =   3.5411798481032E-05
(PID.TID 0000.0001) %MON dynstat_wvel_del2            =   7.8083863303520E-06
(PID.TID 0000.0001) %MON dynstat_theta_max            =   2.6102081646111E+01
(PID.TID 0000.0001) %MON dynstat_theta_min            =   1.8064529061829E+00
(PID.TID 0000.0001) %MON dynstat_theta_mean           =   5.4785587106760E+00
(PID.TID 0000.0001) %MON dynstat_theta_sd             =   4.5928822387088E+00
(PID.TID 0000.0001) %MON dynstat_theta_del2           =   5.0719109697352E-02
(PID.TID 0000.0001) %MON dynstat_salt_max             =   3.7402601296968E+01
(PID.TID 0000.0001) %MON dynstat_salt_min             =   3.4726799930613E+01
(PID.TID 0000.0001) %MON dynstat_salt_mean            =   3.5157565725544E+01
(PID.TID 0000.0001) %MON dynstat_salt_sd              =   4.1379270499939E-01
(PID.TID 0000.0001) %MON dynstat_salt_del2            =   1.2632469749637E-02
(PID.TID 0000.0001) %MON advcfl_uvel_max              =   3.2436825986787E-03
(PID.TID 0000.0001) %MON advcfl_vvel_max              =   2.0379748025053E-03
(PID.TID 0000.0001) %MON advcfl_wvel_max              =   5.4010865710930E-03
(PID.TID 0000.0001) %MON advcfl_W_hf_max              =   1.0802173142186E-02
(PID.TID 0000.0001) %MON ke_max                       =   1.8088565218972E-02
(PID.TID 0000.0001) %MON ke_mean                      =   4.8023547059139E-04
(PID.TID 0000.0001) %MON ke_volint                    =   2.2106662274599E+12
(PID.TID 0000.0001) %MON ke_volmean                   =   6.1360545407675E-05
(PID.TID 0000.0001) // =======================================================
(PID.TID 0000.0001) // End MONITOR dynamic field statistics
(PID.TID 0000.0001) // =======================================================
 cg2d: Sum(rhs),rhsMax =  -6.49827414100912E-15  5.52256121982500E-01
(PID.TID 0000.0001)                    cg2d_init_res =    1.38278671964949E-01
(PID.TID 0000.0001)                       cg2d_iters =    45
(PID.TID 0000.0001)                         cg2d_res =    7.06999488172455E-14
(PID.TID 0000.0001) // =======================================================
(PID.TID 0000.0001) // Begin MONITOR dynamic field statistics
(PID.TID 0000.0001) // =======================================================
(PID.TID 0000.0001) %MON time_tsnumber                =                    11
(PID.TID 0000.0001) %MON time_secondsf                =   3.9600000000000E+04
(PID.TID 0000.0001) %MON time_secondsi                =                 39600
(PID.TID 0000.0001) %MON dynstat_eta_max              =   1.4688217907808E-01
(PID.TID 0000.0001) %MON dynstat_eta_min              =  -2.1251800210943E-01
(PID.TID 0000.0001) %MON dynstat_eta_mean             =   6.5936205516849E-17
(PID.TID 0000.0001) %MON dynstat_eta_sd               =   7.1858650737368E-02
(PID.TID 0000.0001) %MON dynstat_eta_del2             =   4.5420362659776E-03
(PID.TID 0000.0001) %MON dynstat_uvel_max             =   4.8753841001882E-02
(PID.TID 0000.0001) %MON dynstat_uvel_min             =  -2.0225756407783E-01
(PID.TID 0000.0001) %MON dynstat_uvel_mean            =   6.2697635593991E-05
(PID.TID 0000.0001) %MON dynstat_uvel_sd              =   9.4762028410309E-03
(PID.TID 0000.0001) %MON dynstat_uvel_del2            =   3.5600509320766E-03
(PID.TID 0000.0001) %MON dynstat_vvel_max             =   7.3980767905857E-02
(PID.TID 0000.0001) %MON dynstat_vvel_min             =  -1.3194114312982E-01
(PID.TID 0000.0001) %MON dynstat_vvel_mean            =   4.2420071797357E-04
(PID.TID 0000.0001) %MON dynstat_vvel_sd              =   7.2596462558901E-03
(PID.TID 0000.0001) %MON dynstat_vvel_del2            =   2.1305835552788E-03
(PID.TID 0000.0001) %MON dynstat_wvel_max             =   1.4994091536943E-04
(PID.TID 0000.0001) %MON dynstat_wvel_min             =  -1.6350851214694E-04
(PID.TID 0000.0001) %MON dynstat_wvel_mean            =  -3.1287865319876E-22
(PID.TID 0000.0001) %MON dynstat_wvel_sd              =   3.4339991947554E-05
(PID.TID 0000.0001) %MON dynstat_wvel_del2            =   7.2723359814092E-06
(PID.TID 0000.0001) %MON dynstat_theta_max            =   2.6108935193583E+01
(PID.TID 0000.0001) %MON dynstat_theta_min            =   1.8064548070523E+00
(PID.TID 0000.0001) %MON dynstat_theta_mean           =   5.4785791430007E+00
(PID.TID 0000.0001) %MON dynstat_theta_sd             =   4.5929512878162E+00
(PID.TID 0000.0001) %MON dynstat_theta_del2           =   5.0743106593049E-02
(PID.TID 0000.0001) %MON dynstat_salt_max             =   3.7402918028107E+01
(PID.TID 0000.0001) %MON dynstat_salt_min             =   3.4726801122118E+01
(PID.TID 0000.0001) %MON dynstat_salt_mean            =   3.5157566778532E+01
(PID.TID 0000.0001) %MON dynstat_salt_sd              =   4.1379528879938E-01
(PID.TID 0000.0001) %MON dynstat_salt_del2            =   1.2634932940781E-02
(PID.TID 0000.0001) %MON advcfl_uvel_max              =   3.4242397305844E-03
(PID.TID 0000.0001) %MON advcfl_vvel_max              =   2.1361706690496E-03
(PID.TID 0000.0001) %MON advcfl_wvel_max              =   4.9018805693319E-03
(PID.TID 0000.0001) %MON advcfl_W_hf_max              =   9.8037611386639E-03
(PID.TID 0000.0001) %MON ke_max                       =   1.9369972422896E-02
(PID.TID 0000.0001) %MON ke_mean                      =   5.0786699782086E-04
(PID.TID 0000.0001) %MON ke_volint                    =   2.2934159618148E+12
(PID.TID 0000.0001) %MON ke_volmean                   =   6.3657395456447E-05
(PID.TID 0000.0001) // =======================================================
(PID.TID 0000.0001) // End MONITOR dynamic field statistics
(PID.TID 0000.0001) // =======================================================
 cg2d: Sum(rhs),rhsMax =  -1.46323925198644E-14  5.45297992539226E-01
(PID.TID 0000.0001)                    cg2d_init_res =    1.16565799304463E-01
(PID.TID 0000.0001)                       cg2d_iters =    45
(PID.TID 0000.0001)                         cg2d_res =    6.83037508107990E-14
(PID.TID 0000.0001) // =======================================================
(PID.TID 0000.0001) // Begin MONITOR dynamic field statistics
(PID.TID 0000.0001) // =======================================================
(PID.TID 0000.0001) %MON time_tsnumber                =                    12
(PID.TID 0000.0001) %MON time_secondsf                =   4.3200000000000E+04
(PID.TID 0000.0001) %MON time_secondsi                =                 43200
(PID.TID 0000.0001) %MON dynstat_eta_max              =   1.4574302957731E-01
(PID.TID 0000.0001) %MON dynstat_eta_min              =  -2.0704057715279E-01
(PID.TID 0000.0001) %MON dynstat_eta_mean             =   4.8134032974455E-17
(PID.TID 0000.0001) %MON dynstat_eta_sd               =   7.0998862428077E-02
(PID.TID 0000.0001) %MON dynstat_eta_del2             =   4.5374215583276E-03
(PID.TID 0000.0001) %MON dynstat_uvel_max             =   4.6111545902692E-02
(PID.TID 0000.0001) %MON dynstat_uvel_min             =  -2.0998524478204E-01
(PID.TID 0000.0001) %MON dynstat_uvel_mean            =  -5.1348921112875E-05
(PID.TID 0000.0001) %MON dynstat_uvel_sd              =   9.6656101541381E-03
(PID.TID 0000.0001) %MON dynstat_uvel_del2            =   3.5835957459307E-03
(PID.TID 0000.0001) %MON dynstat_vvel_max             =   7.6773150619648E-02
(PID.TID 0000.0001) %MON dynstat_vvel_min             =  -1.3654757173150E-01
(PID.TID 0000.0001) %MON dynstat_vvel_mean            =   3.1231474275614E-04
(PID.TID 0000.0001) %MON dynstat_vvel_sd              =   7.1863273460484E-03
(PID.TID 0000.0001) %MON dynstat_vvel_del2            =   2.1424967453450E-03
(PID.TID 0000.0001) %MON dynstat_wvel_max             =   1.5170809287206E-04
(PID.TID 0000.0001) %MON dynstat_wvel_min             =  -1.5549558508851E-04
(PID.TID 0000.0001) %MON dynstat_wvel_mean            =   2.5246505895353E-22
(PID.TID 0000.0001) %MON dynstat_wvel_sd              =   3.3374376657143E-05
(PID.TID 0000.0001) %MON dynstat_wvel_del2            =   6.8678666806384E-06
(PID.TID 0000.0001) %MON dynstat_theta_max            =   2.6115712324396E+01
(PID.TID 0000.0001) %MON dynstat_theta_min            =   1.8064566492903E+00
(PID.TID 0000.0001) %MON dynstat_theta_mean           =   5.4785983523427E+00
(PID.TID 0000.0001) %MON dynstat_theta_sd             =   4.5930158625943E+00
(PID.TID 0000.0001) %MON dynstat_theta_del2           =   5.0779454967080E-02
(PID.TID 0000.0001) %MON dynstat_salt_max             =   3.7403252847383E+01
(PID.TID 0000.0001) %MON dynstat_salt_min             =   3.4726803102633E+01
(PID.TID 0000.0001) %MON dynstat_salt_mean            =   3.5157567795032E+01
(PID.TID 0000.0001) %MON dynstat_salt_sd              =   4.1379770444404E-01
(PID.TID 0000.0001) %MON dynstat_salt_del2            =   1.2638774162221E-02
(PID.TID 0000.0001) %MON advcfl_uvel_max              =   3.5550700973659E-03
(PID.TID 0000.0001) %MON advcfl_vvel_max              =   2.2107502689725E-03
(PID.TID 0000.0001) %MON advcfl_wvel_max              =   4.4913449954352E-03
(PID.TID 0000.0001) %MON advcfl_W_hf_max              =   8.4771300184911E-03
(PID.TID 0000.0001) %MON ke_max                       =   2.1296994387134E-02
(PID.TID 0000.0001) %MON ke_mean                      =   5.2751582336815E-04
(PID.TID 0000.0001) %MON ke_volint                    =   2.3341453709607E+12
(PID.TID 0000.0001) %MON ke_volmean                   =   6.4787904770012E-05
(PID.TID 0000.0001) // =======================================================
(PID.TID 0000.0001) // End MONITOR dynamic field statistics
(PID.TID 0000.0001) // =======================================================
 S/R EXTERNAL_FIELDS_LOAD: Reading new data  43200. 12
(PID.TID 0000.0001)  MDSREADFIELD: opening global file: kf_fu
(PID.TID 0000.0001)  MDSREADFIELD: opening global file: kf_fu
(PID.TID 0000.0001)  MDSREADFIELD: opening global file: kf_fv
(PID.TID 0000.0001)  MDSREADFIELD: opening global file: kf_fv
(PID.TID 0000.0001)  MDSREADFIELD: opening global file: kf_qnet
(PID.TID 0000.0001)  MDSREADFIELD: opening global file: kf_qnet
(PID.TID 0000.0001)  MDSREADFIELD: opening global file: kf_empmr
(PID.TID 0000.0001)  MDSREADFIELD: opening global file: kf_empmr
(PID.TID 0000.0001)  MDSREADFIELD: opening global file: kf_sst
(PID.TID 0000.0001)  MDSREADFIELD: opening global file: kf_sst
(PID.TID 0000.0001)  MDSREADFIELD: opening global file: kf_sss
(PID.TID 0000.0001)  MDSREADFIELD: opening global file: kf_sss
(PID.TID 0000.0001)  MDSREADFIELD: opening global file: kf_sw
(PID.TID 0000.0001)  MDSREADFIELD: opening global file: kf_sw
 cg2d: Sum(rhs),rhsMax =  -1.11854969730985E-14  5.42106069023227E-01
(PID.TID 0000.0001)                    cg2d_init_res =    9.01764295512225E-02
(PID.TID 0000.0001)                       cg2d_iters =    45
(PID.TID 0000.0001)                         cg2d_res =    8.96962992825708E-14
(PID.TID 0000.0001) // =======================================================
(PID.TID 0000.0001) // Begin MONITOR dynamic field statistics
(PID.TID 0000.0001) // =======================================================
(PID.TID 0000.0001) %MON time_tsnumber                =                    13
(PID.TID 0000.0001) %MON time_secondsf                =   4.6800000000000E+04
(PID.TID 0000.0001) %MON time_secondsi                =                 46800
(PID.TID 0000.0001) %MON dynstat_eta_max              =   1.4671820957908E-01
(PID.TID 0000.0001) %MON dynstat_eta_min              =  -2.0578747309553E-01
(PID.TID 0000.0001) %MON dynstat_eta_mean             =   6.3554374912331E-17
(PID.TID 0000.0001) %MON dynstat_eta_sd               =   7.1731972049935E-02
(PID.TID 0000.0001) %MON dynstat_eta_del2             =   4.5531429160541E-03
(PID.TID 0000.0001) %MON dynstat_uvel_max             =   4.5572793712359E-02
(PID.TID 0000.0001) %MON dynstat_uvel_min             =  -2.1344111484869E-01
(PID.TID 0000.0001) %MON dynstat_uvel_mean            =  -1.2066111355667E-04
(PID.TID 0000.0001) %MON dynstat_uvel_sd              =   9.7462945852980E-03
(PID.TID 0000.0001) %MON dynstat_uvel_del2            =   3.5154853631041E-03
(PID.TID 0000.0001) %MON dynstat_vvel_max             =   7.7412999375343E-02
(PID.TID 0000.0001) %MON dynstat_vvel_min             =  -1.3955297610811E-01
(PID.TID 0000.0001) %MON dynstat_vvel_mean            =   1.4388371580897E-04
(PID.TID 0000.0001) %MON dynstat_vvel_sd              =   7.0825146712567E-03
(PID.TID 0000.0001) %MON dynstat_vvel_del2            =   2.2242816035752E-03
(PID.TID 0000.0001) %MON dynstat_wvel_max             =   1.5090555823814E-04
(PID.TID 0000.0001) %MON dynstat_wvel_min             =  -1.5152352532092E-04
(PID.TID 0000.0001) %MON dynstat_wvel_mean            =   2.6722735001574E-22
(PID.TID 0000.0001) %MON dynstat_wvel_sd              =   3.2680868531659E-05
(PID.TID 0000.0001) %MON dynstat_wvel_del2            =   6.7347900264682E-06
(PID.TID 0000.0001) %MON dynstat_theta_max            =   2.6122368867781E+01
(PID.TID 0000.0001) %MON dynstat_theta_min            =   1.8064584952312E+00
(PID.TID 0000.0001) %MON dynstat_theta_mean           =   5.4786159207865E+00
(PID.TID 0000.0001) %MON dynstat_theta_sd             =   4.5930743521003E+00
(PID.TID 0000.0001) %MON dynstat_theta_del2           =   5.0829734915144E-02
(PID.TID 0000.0001) %MON dynstat_salt_max             =   3.7403603077132E+01
(PID.TID 0000.0001) %MON dynstat_salt_min             =   3.4726806065798E+01
(PID.TID 0000.0001) %MON dynstat_salt_mean            =   3.5157568895299E+01
(PID.TID 0000.0001) %MON dynstat_salt_sd              =   4.1380028717530E-01
(PID.TID 0000.0001) %MON dynstat_salt_del2            =   1.2642092671545E-02
(PID.TID 0000.0001) %MON advcfl_uvel_max              =   3.6135783051548E-03
(PID.TID 0000.0001) %MON advcfl_vvel_max              =   2.2594087580961E-03
(PID.TID 0000.0001) %MON advcfl_wvel_max              =   4.3471065598145E-03
(PID.TID 0000.0001) %MON advcfl_W_hf_max              =   7.0433844433530E-03
(PID.TID 0000.0001) %MON ke_max                       =   2.2862494778674E-02
(PID.TID 0000.0001) %MON ke_mean                      =   5.3835931387399E-04
(PID.TID 0000.0001) %MON ke_volint                    =   2.3350928308261E+12
(PID.TID 0000.0001) %MON ke_volmean                   =   6.4814203020453E-05
(PID.TID 0000.0001) // =======================================================
(PID.TID 0000.0001) // End MONITOR dynamic field statistics
(PID.TID 0000.0001) // =======================================================
 cg2d: Sum(rhs),rhsMax =  -1.77488232444567E-14  5.41934949577850E-01
(PID.TID 0000.0001)                    cg2d_init_res =    7.96146115365578E-02
(PID.TID 0000.0001)                       cg2d_iters =    45
(PID.TID 0000.0001)                         cg2d_res =    9.05790668965708E-14
(PID.TID 0000.0001) // =======================================================
(PID.TID 0000.0001) // Begin MONITOR dynamic field statistics
(PID.TID 0000.0001) // =======================================================
(PID.TID 0000.0001) %MON time_tsnumber                =                    14
(PID.TID 0000.0001) %MON time_secondsf                =   5.0400000000000E+04
(PID.TID 0000.0001) %MON time_secondsi                =                 50400
(PID.TID 0000.0001) %MON dynstat_eta_max              =   1.4888181384453E-01
(PID.TID 0000.0001) %MON dynstat_eta_min              =  -2.0790915650160E-01
(PID.TID 0000.0001) %MON dynstat_eta_mean             =   4.6907269034635E-17
(PID.TID 0000.0001) %MON dynstat_eta_sd               =   7.3310251416949E-02
(PID.TID 0000.0001) %MON dynstat_eta_del2             =   4.5743182013681E-03
(PID.TID 0000.0001) %MON dynstat_uvel_max             =   4.3470943442491E-02
(PID.TID 0000.0001) %MON dynstat_uvel_min             =  -2.1477252807659E-01
(PID.TID 0000.0001) %MON dynstat_uvel_mean            =  -1.5278904616285E-04
(PID.TID 0000.0001) %MON dynstat_uvel_sd              =   9.7302651298559E-03
(PID.TID 0000.0001) %MON dynstat_uvel_del2            =   3.3607524122877E-03
(PID.TID 0000.0001) %MON dynstat_vvel_max             =   8.1050483013875E-02
(PID.TID 0000.0001) %MON dynstat_vvel_min             =  -1.4074214637959E-01
(PID.TID 0000.0001) %MON dynstat_vvel_mean            =  -1.7687737873024E-05
(PID.TID 0000.0001) %MON dynstat_vvel_sd              =   6.9469338777159E-03
(PID.TID 0000.0001) %MON dynstat_vvel_del2            =   2.3467467434516E-03
(PID.TID 0000.0001) %MON dynstat_wvel_max             =   1.4750788716451E-04
(PID.TID 0000.0001) %MON dynstat_wvel_min             =  -1.5893253677182E-04
(PID.TID 0000.0001) %MON dynstat_wvel_mean            =   5.2850968361867E-22
(PID.TID 0000.0001) %MON dynstat_wvel_sd              =   3.2216164249574E-05
(PID.TID 0000.0001) %MON dynstat_wvel_del2            =   6.8165844208368E-06
(PID.TID 0000.0001) %MON dynstat_theta_max            =   2.6128822199677E+01
(PID.TID 0000.0001) %MON dynstat_theta_min            =   1.8064604100804E+00
(PID.TID 0000.0001) %MON dynstat_theta_mean           =   5.4786318994452E+00
(PID.TID 0000.0001) %MON dynstat_theta_sd             =   4.5931269736935E+00
(PID.TID 0000.0001) %MON dynstat_theta_del2           =   5.0895073000651E-02
(PID.TID 0000.0001) %MON dynstat_salt_max             =   3.7403965470408E+01
(PID.TID 0000.0001) %MON dynstat_salt_min             =   3.4726810055940E+01
(PID.TID 0000.0001) %MON dynstat_salt_mean            =   3.5157570132572E+01
(PID.TID 0000.0001) %MON dynstat_salt_sd              =   4.1380320134174E-01
(PID.TID 0000.0001) %MON dynstat_salt_del2            =   1.2644849114297E-02
(PID.TID 0000.0001) %MON advcfl_uvel_max              =   3.6336967554933E-03
(PID.TID 0000.0001) %MON advcfl_vvel_max              =   2.2786618174086E-03
(PID.TID 0000.0001) %MON advcfl_wvel_max              =   4.1581354896751E-03
(PID.TID 0000.0001) %MON advcfl_W_hf_max              =   6.0458178572455E-03
(PID.TID 0000.0001) %MON ke_max                       =   2.3986485090571E-02
(PID.TID 0000.0001) %MON ke_mean                      =   5.4113303056672E-04
(PID.TID 0000.0001) %MON ke_volint                    =   2.2997532731577E+12
(PID.TID 0000.0001) %MON ke_volmean                   =   6.3833297578437E-05
(PID.TID 0000.0001) // =======================================================
(PID.TID 0000.0001) // End MONITOR dynamic field statistics
(PID.TID 0000.0001) // =======================================================
 cg2d: Sum(rhs),rhsMax =  -1.18152015948780E-14  5.43849097481919E-01
(PID.TID 0000.0001)                    cg2d_init_res =    8.29647550197417E-02
(PID.TID 0000.0001)                       cg2d_iters =    45
(PID.TID 0000.0001)                         cg2d_res =    6.64257341720830E-14
(PID.TID 0000.0001) // =======================================================
(PID.TID 0000.0001) // Begin MONITOR dynamic field statistics
(PID.TID 0000.0001) // =======================================================
(PID.TID 0000.0001) %MON time_tsnumber                =                    15
(PID.TID 0000.0001) %MON time_secondsf                =   5.4000000000000E+04
(PID.TID 0000.0001) %MON time_secondsi                =                 54000
(PID.TID 0000.0001) %MON dynstat_eta_max              =   1.5127704906240E-01
(PID.TID 0000.0001) %MON dynstat_eta_min              =  -2.1224719848129E-01
(PID.TID 0000.0001) %MON dynstat_eta_mean             =   3.8207494742793E-17
(PID.TID 0000.0001) %MON dynstat_eta_sd               =   7.5168486458603E-02
(PID.TID 0000.0001) %MON dynstat_eta_del2             =   4.6033700654725E-03
(PID.TID 0000.0001) %MON dynstat_uvel_max             =   3.9991052075594E-02
(PID.TID 0000.0001) %MON dynstat_uvel_min             =  -2.1879746799090E-01
(PID.TID 0000.0001) %MON dynstat_uvel_mean            =  -1.5543922191968E-04
(PID.TID 0000.0001) %MON dynstat_uvel_sd              =   9.6243759890611E-03
(PID.TID 0000.0001) %MON dynstat_uvel_del2            =   3.1423595412114E-03
(PID.TID 0000.0001) %MON dynstat_vvel_max             =   8.3990710001635E-02
(PID.TID 0000.0001) %MON dynstat_vvel_min             =  -1.3989253092990E-01
(PID.TID 0000.0001) %MON dynstat_vvel_mean            =  -1.2744741081627E-04
(PID.TID 0000.0001) %MON dynstat_vvel_sd              =   6.7766827263407E-03
(PID.TID 0000.0001) %MON dynstat_vvel_del2            =   2.4371663005049E-03
(PID.TID 0000.0001) %MON dynstat_wvel_max             =   1.4155548378257E-04
(PID.TID 0000.0001) %MON dynstat_wvel_min             =  -1.6486549077428E-04
(PID.TID 0000.0001) %MON dynstat_wvel_mean            =  -2.4475418332890E-22
(PID.TID 0000.0001) %MON dynstat_wvel_sd              =   3.1773296103367E-05
(PID.TID 0000.0001) %MON dynstat_wvel_del2            =   6.9698200004570E-06
(PID.TID 0000.0001) %MON dynstat_theta_max            =   2.6135111120141E+01
(PID.TID 0000.0001) %MON dynstat_theta_min            =   1.8064624590905E+00
(PID.TID 0000.0001) %MON dynstat_theta_mean           =   5.4786466869969E+00
(PID.TID 0000.0001) %MON dynstat_theta_sd             =   4.5931751868684E+00
(PID.TID 0000.0001) %MON dynstat_theta_del2           =   5.0968964757250E-02
(PID.TID 0000.0001) %MON dynstat_salt_max             =   3.7404332419242E+01
(PID.TID 0000.0001) %MON dynstat_salt_min             =   3.4726814940045E+01
(PID.TID 0000.0001) %MON dynstat_salt_mean            =   3.5157571497058E+01
(PID.TID 0000.0001) %MON dynstat_salt_sd              =   4.1380644569770E-01
(PID.TID 0000.0001) %MON dynstat_salt_del2            =   1.2646862167333E-02
(PID.TID 0000.0001) %MON advcfl_uvel_max              =   3.6819023156332E-03
(PID.TID 0000.0001) %MON advcfl_vvel_max              =   2.2649062627686E-03
(PID.TID 0000.0001) %MON advcfl_wvel_max              =   3.9789536162211E-03
(PID.TID 0000.0001) %MON advcfl_W_hf_max              =   6.6157360342396E-03
(PID.TID 0000.0001) %MON ke_max                       =   2.4839864268629E-02
(PID.TID 0000.0001) %MON ke_mean                      =   5.3616136863741E-04
(PID.TID 0000.0001) %MON ke_volint                    =   2.2298065310241E+12
(PID.TID 0000.0001) %MON ke_volmean                   =   6.1891814873586E-05
(PID.TID 0000.0001) // =======================================================
(PID.TID 0000.0001) // End MONITOR dynamic field statistics
(PID.TID 0000.0001) // =======================================================
 cg2d: Sum(rhs),rhsMax =  -5.90846815917700E-15  5.46920338976349E-01
(PID.TID 0000.0001)                    cg2d_init_res =    8.43607133064003E-02
(PID.TID 0000.0001)                       cg2d_iters =    44
(PID.TID 0000.0001)                         cg2d_res =    7.59953881864237E-14
(PID.TID 0000.0001) // =======================================================
(PID.TID 0000.0001) // Begin MONITOR dynamic field statistics
(PID.TID 0000.0001) // =======================================================
(PID.TID 0000.0001) %MON time_tsnumber                =                    16
(PID.TID 0000.0001) %MON time_secondsf                =   5.7600000000000E+04
(PID.TID 0000.0001) %MON time_secondsi                =                 57600
(PID.TID 0000.0001) %MON dynstat_eta_max              =   1.5316399909133E-01
(PID.TID 0000.0001) %MON dynstat_eta_min              =  -2.1737722941049E-01
(PID.TID 0000.0001) %MON dynstat_eta_mean             =   5.5256761744676E-17
(PID.TID 0000.0001) %MON dynstat_eta_sd               =   7.6891866853158E-02
(PID.TID 0000.0001) %MON dynstat_eta_del2             =   4.6405430491931E-03
(PID.TID 0000.0001) %MON dynstat_uvel_max             =   3.5666603230780E-02
(PID.TID 0000.0001) %MON dynstat_uvel_min             =  -2.2089709678749E-01
(PID.TID 0000.0001) %MON dynstat_uvel_mean            =  -1.3666620016211E-04
(PID.TID 0000.0001) %MON dynstat_uvel_sd              =   9.4384860089501E-03
(PID.TID 0000.0001) %MON dynstat_uvel_del2            =   2.8808491894100E-03
(PID.TID 0000.0001) %MON dynstat_vvel_max             =   8.8869554495360E-02
(PID.TID 0000.0001) %MON dynstat_vvel_min             =  -1.3685823005320E-01
(PID.TID 0000.0001) %MON dynstat_vvel_mean            =  -1.6847493954051E-04
(PID.TID 0000.0001) %MON dynstat_vvel_sd              =   6.5784950965654E-03
(PID.TID 0000.0001) %MON dynstat_vvel_del2            =   2.4655753293204E-03
(PID.TID 0000.0001) %MON dynstat_wvel_max             =   1.3315465092629E-04
(PID.TID 0000.0001) %MON dynstat_wvel_min             =  -1.6931863337598E-04
(PID.TID 0000.0001) %MON dynstat_wvel_mean            =   4.5529071206942E-22
(PID.TID 0000.0001) %MON dynstat_wvel_sd              =   3.1102746115344E-05
(PID.TID 0000.0001) %MON dynstat_wvel_del2            =   6.9694349987324E-06
(PID.TID 0000.0001) %MON dynstat_theta_max            =   2.6141264389345E+01
(PID.TID 0000.0001) %MON dynstat_theta_min            =   1.8064646926731E+00
(PID.TID 0000.0001) %MON dynstat_theta_mean           =   5.4786608623999E+00
(PID.TID 0000.0001) %MON dynstat_theta_sd             =   4.5932211477330E+00
(PID.TID 0000.0001) %MON dynstat_theta_del2           =   5.1045587515296E-02
(PID.TID 0000.0001) %MON dynstat_salt_max             =   3.7404701907393E+01
(PID.TID 0000.0001) %MON dynstat_salt_min             =   3.4726820545600E+01
(PID.TID 0000.0001) %MON dynstat_salt_mean            =   3.5157572945072E+01
(PID.TID 0000.0001) %MON dynstat_salt_sd              =   4.1380992551641E-01
(PID.TID 0000.0001) %MON dynstat_salt_del2            =   1.2648576619652E-02
(PID.TID 0000.0001) %MON advcfl_uvel_max              =   3.7025585517945E-03
(PID.TID 0000.0001) %MON advcfl_vvel_max              =   2.2157799297680E-03
(PID.TID 0000.0001) %MON advcfl_wvel_max              =   4.1813023822427E-03
(PID.TID 0000.0001) %MON advcfl_W_hf_max              =   7.1290950904697E-03
(PID.TID 0000.0001) %MON ke_max                       =   2.5433264183723E-02
(PID.TID 0000.0001) %MON ke_mean                      =   5.2506558266772E-04
(PID.TID 0000.0001) %MON ke_volint                    =   2.1305498742578E+12
(PID.TID 0000.0001) %MON ke_volmean                   =   5.9136789027139E-05
(PID.TID 0000.0001) // =======================================================
(PID.TID 0000.0001) // End MONITOR dynamic field statistics
(PID.TID 0000.0001) // =======================================================
 cg2d: Sum(rhs),rhsMax =  -8.82627304576999E-15  5.49958373135870E-01
(PID.TID 0000.0001)                    cg2d_init_res =    7.83790133804644E-02
(PID.TID 0000.0001)                       cg2d_iters =    44
(PID.TID 0000.0001)                         cg2d_res =    6.39528223990612E-14
(PID.TID 0000.0001) // =======================================================
(PID.TID 0000.0001) // Begin MONITOR dynamic field statistics
(PID.TID 0000.0001) // =======================================================
(PID.TID 0000.0001) %MON time_tsnumber                =                    17
(PID.TID 0000.0001) %MON time_secondsf                =   6.1200000000000E+04
(PID.TID 0000.0001) %MON time_secondsi                =                 61200
(PID.TID 0000.0001) %MON dynstat_eta_max              =   1.5413045081679E-01
(PID.TID 0000.0001) %MON dynstat_eta_min              =  -2.2194154365706E-01
(PID.TID 0000.0001) %MON dynstat_eta_mean             =   5.5881462122454E-17
(PID.TID 0000.0001) %MON dynstat_eta_sd               =   7.8160646679776E-02
(PID.TID 0000.0001) %MON dynstat_eta_del2             =   4.6831538931544E-03
(PID.TID 0000.0001) %MON dynstat_uvel_max             =   3.6327904635409E-02
(PID.TID 0000.0001) %MON dynstat_uvel_min             =  -2.2112781921612E-01
(PID.TID 0000.0001) %MON dynstat_uvel_mean            =  -1.0525612183721E-04
(PID.TID 0000.0001) %MON dynstat_uvel_sd              =   9.1823033366910E-03
(PID.TID 0000.0001) %MON dynstat_uvel_del2            =   2.6010098395126E-03
(PID.TID 0000.0001) %MON dynstat_vvel_max             =   1.0002663098774E-01
(PID.TID 0000.0001) %MON dynstat_vvel_min             =  -1.3172651644814E-01
(PID.TID 0000.0001) %MON dynstat_vvel_mean            =  -1.4859694183914E-04
(PID.TID 0000.0001) %MON dynstat_vvel_sd              =   6.3706608611920E-03
(PID.TID 0000.0001) %MON dynstat_vvel_del2            =   2.4122252045634E-03
(PID.TID 0000.0001) %MON dynstat_wvel_max             =   1.2252270273472E-04
(PID.TID 0000.0001) %MON dynstat_wvel_min             =  -1.7225652084771E-04
(PID.TID 0000.0001) %MON dynstat_wvel_mean            =   1.7205299106714E-22
(PID.TID 0000.0001) %MON dynstat_wvel_sd              =   3.0041866329416E-05
(PID.TID 0000.0001) %MON dynstat_wvel_del2            =   6.7675890624702E-06
(PID.TID 0000.0001) %MON dynstat_theta_max            =   2.6147311835925E+01
(PID.TID 0000.0001) %MON dynstat_theta_min            =   1.8064671445488E+00
(PID.TID 0000.0001) %MON dynstat_theta_mean           =   5.4786749685777E+00
(PID.TID 0000.0001) %MON dynstat_theta_sd             =   4.5932668691830E+00
(PID.TID 0000.0001) %MON dynstat_theta_del2           =   5.1121683900991E-02
(PID.TID 0000.0001) %MON dynstat_salt_max             =   3.7405072204612E+01
(PID.TID 0000.0001) %MON dynstat_salt_min             =   3.4726826713837E+01
(PID.TID 0000.0001) %MON dynstat_salt_mean            =   3.5157574426620E+01
(PID.TID 0000.0001) %MON dynstat_salt_sd              =   4.1381352396648E-01
(PID.TID 0000.0001) %MON dynstat_salt_del2            =   1.2650062549000E-02
(PID.TID 0000.0001) %MON advcfl_uvel_max              =   3.7064257972841E-03
(PID.TID 0000.0001) %MON advcfl_vvel_max              =   2.1326957922119E-03
(PID.TID 0000.0001) %MON advcfl_wvel_max              =   4.5709866296617E-03
(PID.TID 0000.0001) %MON advcfl_W_hf_max              =   7.5434940773937E-03
(PID.TID 0000.0001) %MON ke_max                       =   2.5765682456857E-02
(PID.TID 0000.0001) %MON ke_mean                      =   5.0953155898282E-04
(PID.TID 0000.0001) %MON ke_volint                    =   2.0103646486416E+12
(PID.TID 0000.0001) %MON ke_volmean                   =   5.5800857577084E-05
(PID.TID 0000.0001) // =======================================================
(PID.TID 0000.0001) // End MONITOR dynamic field statistics
(PID.TID 0000.0001) // =======================================================
 cg2d: Sum(rhs),rhsMax =  -1.22749033160119E-14  5.51916207946058E-01
(PID.TID 0000.0001)                    cg2d_init_res =    6.92741328011494E-02
(PID.TID 0000.0001)                       cg2d_iters =    44
(PID.TID 0000.0001)                         cg2d_res =    8.64614682318037E-14
(PID.TID 0000.0001) // =======================================================
(PID.TID 0000.0001) // Begin MONITOR dynamic field statistics
(PID.TID 0000.0001) // =======================================================
(PID.TID 0000.0001) %MON time_tsnumber                =                    18
(PID.TID 0000.0001) %MON time_secondsf                =   6.4800000000000E+04
(PID.TID 0000.0001) %MON time_secondsi                =                 64800
(PID.TID 0000.0001) %MON dynstat_eta_max              =   1.5411149380419E-01
(PID.TID 0000.0001) %MON dynstat_eta_min              =  -2.2500255761062E-01
(PID.TID 0000.0001) %MON dynstat_eta_mean             =   6.8162355418345E-17
(PID.TID 0000.0001) %MON dynstat_eta_sd               =   7.8791626612476E-02
(PID.TID 0000.0001) %MON dynstat_eta_del2             =   4.7264637244851E-03
(PID.TID 0000.0001) %MON dynstat_uvel_max             =   3.5221301366208E-02
(PID.TID 0000.0001) %MON dynstat_uvel_min             =  -2.1957787941115E-01
(PID.TID 0000.0001) %MON dynstat_uvel_mean            =  -7.0825830692748E-05
(PID.TID 0000.0001) %MON dynstat_uvel_sd              =   8.8701266462547E-03
(PID.TID 0000.0001) %MON dynstat_uvel_del2            =   2.3471265226760E-03
(PID.TID 0000.0001) %MON dynstat_vvel_max             =   1.1134983502922E-01
(PID.TID 0000.0001) %MON dynstat_vvel_min             =  -1.2617315541703E-01
(PID.TID 0000.0001) %MON dynstat_vvel_mean            =  -9.0743720698228E-05
(PID.TID 0000.0001) %MON dynstat_vvel_sd              =   6.1818897109474E-03
(PID.TID 0000.0001) %MON dynstat_vvel_del2            =   2.2905670170884E-03
(PID.TID 0000.0001) %MON dynstat_wvel_max             =   1.0997000897810E-04
(PID.TID 0000.0001) %MON dynstat_wvel_min             =  -1.7361456544458E-04
(PID.TID 0000.0001) %MON dynstat_wvel_mean            =  -4.3667126585065E-23
(PID.TID 0000.0001) %MON dynstat_wvel_sd              =   2.8587139703319E-05
(PID.TID 0000.0001) %MON dynstat_wvel_del2            =   6.3410270543961E-06
(PID.TID 0000.0001) %MON dynstat_theta_max            =   2.6153275958677E+01
(PID.TID 0000.0001) %MON dynstat_theta_min            =   1.8064698323284E+00
(PID.TID 0000.0001) %MON dynstat_theta_mean           =   5.4786893705269E+00
(PID.TID 0000.0001) %MON dynstat_theta_sd             =   4.5933137049860E+00
(PID.TID 0000.0001) %MON dynstat_theta_del2           =   5.1195455520017E-02
(PID.TID 0000.0001) %MON dynstat_salt_max             =   3.7405441647591E+01
(PID.TID 0000.0001) %MON dynstat_salt_min             =   3.4726833344173E+01
(PID.TID 0000.0001) %MON dynstat_salt_mean            =   3.5157575903327E+01
(PID.TID 0000.0001) %MON dynstat_salt_sd              =   4.1381714705939E-01
(PID.TID 0000.0001) %MON dynstat_salt_del2            =   1.2651222650568E-02
(PID.TID 0000.0001) %MON advcfl_uvel_max              =   3.6804465383300E-03
(PID.TID 0000.0001) %MON advcfl_vvel_max              =   2.0427850436168E-03
(PID.TID 0000.0001) %MON advcfl_wvel_max              =   4.8582327877789E-03
(PID.TID 0000.0001) %MON advcfl_W_hf_max              =   7.8961939353362E-03
(PID.TID 0000.0001) %MON ke_max                       =   2.5831671439895E-02
(PID.TID 0000.0001) %MON ke_mean                      =   4.9161139243312E-04
(PID.TID 0000.0001) %MON ke_volint                    =   1.8811400584045E+12
(PID.TID 0000.0001) %MON ke_volmean                   =   5.2214024233120E-05
(PID.TID 0000.0001) // =======================================================
(PID.TID 0000.0001) // End MONITOR dynamic field statistics
(PID.TID 0000.0001) // =======================================================
 cg2d: Sum(rhs),rhsMax =  -7.39339145461315E-15  5.52147648296767E-01
(PID.TID 0000.0001)                    cg2d_init_res =    6.30180151678658E-02
(PID.TID 0000.0001)                       cg2d_iters =    44
(PID.TID 0000.0001)                         cg2d_res =    9.39080302190481E-14
(PID.TID 0000.0001) // =======================================================
(PID.TID 0000.0001) // Begin MONITOR dynamic field statistics
(PID.TID 0000.0001) // =======================================================
(PID.TID 0000.0001) %MON time_tsnumber                =                    19
(PID.TID 0000.0001) %MON time_secondsf                =   6.8400000000000E+04
(PID.TID 0000.0001) %MON time_secondsi                =                 68400
(PID.TID 0000.0001) %MON dynstat_eta_max              =   1.5332232338094E-01
(PID.TID 0000.0001) %MON dynstat_eta_min              =  -2.2623576438074E-01
(PID.TID 0000.0001) %MON dynstat_eta_mean             =   7.0698520298184E-17
(PID.TID 0000.0001) %MON dynstat_eta_sd               =   7.8797130462762E-02
(PID.TID 0000.0001) %MON dynstat_eta_del2             =   4.7695402826574E-03
(PID.TID 0000.0001) %MON dynstat_uvel_max             =   3.2498447673900E-02
(PID.TID 0000.0001) %MON dynstat_uvel_min             =  -2.1634826527299E-01
(PID.TID 0000.0001) %MON dynstat_uvel_mean            =  -4.2559265120031E-05
(PID.TID 0000.0001) %MON dynstat_uvel_sd              =   8.5216981482539E-03
(PID.TID 0000.0001) %MON dynstat_uvel_del2            =   2.1592269641373E-03
(PID.TID 0000.0001) %MON dynstat_vvel_max             =   1.2117385216961E-01
(PID.TID 0000.0001) %MON dynstat_vvel_min             =  -1.2033863093668E-01
(PID.TID 0000.0001) %MON dynstat_vvel_mean            =  -2.1827017549762E-05
(PID.TID 0000.0001) %MON dynstat_vvel_sd              =   6.0414827790485E-03
(PID.TID 0000.0001) %MON dynstat_vvel_del2            =   2.1434467909917E-03
(PID.TID 0000.0001) %MON dynstat_wvel_max             =   9.5869883838514E-05
(PID.TID 0000.0001) %MON dynstat_wvel_min             =  -1.7332113529910E-04
(PID.TID 0000.0001) %MON dynstat_wvel_mean            =   1.1116412180429E-22
(PID.TID 0000.0001) %MON dynstat_wvel_sd              =   2.6907746617985E-05
(PID.TID 0000.0001) %MON dynstat_wvel_del2            =   5.8141564219237E-06
(PID.TID 0000.0001) %MON dynstat_theta_max            =   2.6159167996023E+01
(PID.TID 0000.0001) %MON dynstat_theta_min            =   1.8064727610140E+00
(PID.TID 0000.0001) %MON dynstat_theta_mean           =   5.4787041979404E+00
(PID.TID 0000.0001) %MON dynstat_theta_sd             =   4.5933621284654E+00
(PID.TID 0000.0001) %MON dynstat_theta_del2           =   5.1261435357617E-02
(PID.TID 0000.0001) %MON dynstat_salt_max             =   3.7405808612481E+01
(PID.TID 0000.0001) %MON dynstat_salt_min             =   3.4726840408738E+01
(PID.TID 0000.0001) %MON dynstat_salt_mean            =   3.5157577355241E+01
(PID.TID 0000.0001) %MON dynstat_salt_sd              =   4.1382074207471E-01
(PID.TID 0000.0001) %MON dynstat_salt_del2            =   1.2652066477084E-02
(PID.TID 0000.0001) %MON advcfl_uvel_max              =   3.6263134799053E-03
(PID.TID 0000.0001) %MON advcfl_vvel_max              =   1.9618446734678E-03
(PID.TID 0000.0001) %MON advcfl_wvel_max              =   5.0239967808999E-03
(PID.TID 0000.0001) %MON advcfl_W_hf_max              =   8.0027780909142E-03
(PID.TID 0000.0001) %MON ke_max                       =   2.5623471124506E-02
(PID.TID 0000.0001) %MON ke_mean                      =   4.7315259940343E-04
(PID.TID 0000.0001) %MON ke_volint                    =   1.7555127300121E+12
(PID.TID 0000.0001) %MON ke_volmean                   =   4.8727038593895E-05
(PID.TID 0000.0001) // =======================================================
(PID.TID 0000.0001) // End MONITOR dynamic field statistics
(PID.TID 0000.0001) // =======================================================
 cg2d: Sum(rhs),rhsMax =  -7.63625274124990E-15  5.50497557820687E-01
(PID.TID 0000.0001)                    cg2d_init_res =    6.13181043536557E-02
(PID.TID 0000.0001)                       cg2d_iters =    44
(PID.TID 0000.0001)                         cg2d_res =    8.10435009431070E-14
(PID.TID 0000.0001) // =======================================================
(PID.TID 0000.0001) // Begin MONITOR dynamic field statistics
(PID.TID 0000.0001) // =======================================================
(PID.TID 0000.0001) %MON time_tsnumber                =                    20
(PID.TID 0000.0001) %MON time_secondsf                =   7.2000000000000E+04
(PID.TID 0000.0001) %MON time_secondsi                =                 72000
(PID.TID 0000.0001) %MON dynstat_eta_max              =   1.5213805831979E-01
(PID.TID 0000.0001) %MON dynstat_eta_min              =  -2.2591636504252E-01
(PID.TID 0000.0001) %MON dynstat_eta_mean             =   5.0964897217530E-17
(PID.TID 0000.0001) %MON dynstat_eta_sd               =   7.8375026273004E-02
(PID.TID 0000.0001) %MON dynstat_eta_del2             =   4.8094928785686E-03
(PID.TID 0000.0001) %MON dynstat_uvel_max             =   3.2081719507557E-02
(PID.TID 0000.0001) %MON dynstat_uvel_min             =  -2.1152929684883E-01
(PID.TID 0000.0001) %MON dynstat_uvel_mean            =  -2.7154682293984E-05
(PID.TID 0000.0001) %MON dynstat_uvel_sd              =   8.1620530802574E-03
(PID.TID 0000.0001) %MON dynstat_uvel_del2            =   2.0511648422666E-03
(PID.TID 0000.0001) %MON dynstat_vvel_max             =   1.2928220484344E-01
(PID.TID 0000.0001) %MON dynstat_vvel_min             =  -1.1437549461466E-01
(PID.TID 0000.0001) %MON dynstat_vvel_mean            =   3.5979117673107E-05
(PID.TID 0000.0001) %MON dynstat_vvel_sd              =   5.9692084251594E-03
(PID.TID 0000.0001) %MON dynstat_vvel_del2            =   2.0356327110454E-03
(PID.TID 0000.0001) %MON dynstat_wvel_max             =   8.0621833404242E-05
(PID.TID 0000.0001) %MON dynstat_wvel_min             =  -1.7150301733305E-04
(PID.TID 0000.0001) %MON dynstat_wvel_mean            =   1.7386372931390E-22
(PID.TID 0000.0001) %MON dynstat_wvel_sd              =   2.5307656192672E-05
(PID.TID 0000.0001) %MON dynstat_wvel_del2            =   5.3976137367546E-06
(PID.TID 0000.0001) %MON dynstat_theta_max            =   2.6164988122899E+01
(PID.TID 0000.0001) %MON dynstat_theta_min            =   1.8064759285567E+00
(PID.TID 0000.0001) %MON dynstat_theta_mean           =   5.4787193697430E+00
(PID.TID 0000.0001) %MON dynstat_theta_sd             =   4.5934118339537E+00
(PID.TID 0000.0001) %MON dynstat_theta_del2           =   5.1320186057787E-02
(PID.TID 0000.0001) %MON dynstat_salt_max             =   3.7406171049039E+01
(PID.TID 0000.0001) %MON dynstat_salt_min             =   3.4726847936652E+01
(PID.TID 0000.0001) %MON dynstat_salt_mean            =   3.5157578779066E+01
(PID.TID 0000.0001) %MON dynstat_salt_sd              =   4.1382429402780E-01
(PID.TID 0000.0001) %MON dynstat_salt_del2            =   1.2652711585847E-02
(PID.TID 0000.0001) %MON advcfl_uvel_max              =   3.5455405181543E-03
(PID.TID 0000.0001) %MON advcfl_vvel_max              =   2.0931215803163E-03
(PID.TID 0000.0001) %MON advcfl_wvel_max              =   5.1003564088876E-03
(PID.TID 0000.0001) %MON advcfl_W_hf_max              =   7.9516139289995E-03
(PID.TID 0000.0001) %MON ke_max                       =   2.5138243663660E-02
(PID.TID 0000.0001) %MON ke_mean                      =   4.5556739010352E-04
(PID.TID 0000.0001) %MON ke_volint                    =   1.6444419300095E+12
(PID.TID 0000.0001) %MON ke_volmean                   =   4.5644092474590E-05
(PID.TID 0000.0001) // =======================================================
(PID.TID 0000.0001) // End MONITOR dynamic field statistics
(PID.TID 0000.0001) // =======================================================
(PID.TID 0000.0001)   Seconds in section "ALL                [THE_MODEL_MAIN]":
(PID.TID 0000.0001)           User time:  9.56000042
(PID.TID 0000.0001)         System time:  0.149999997
(PID.TID 0000.0001)     Wall clock time:  9.77379298
(PID.TID 0000.0001)          No. starts: 1
(PID.TID 0000.0001)           No. stops: 1
(PID.TID 0000.0001)   Seconds in section "INITIALISE_FIXED   [THE_MODEL_MAIN]":
(PID.TID 0000.0001)           User time:  0.180000007
(PID.TID 0000.0001)         System time:  0.00999999978
(PID.TID 0000.0001)     Wall clock time:  0.212244034
(PID.TID 0000.0001)          No. starts: 1
(PID.TID 0000.0001)           No. stops: 1
(PID.TID 0000.0001)   Seconds in section "THE_MAIN_LOOP      [THE_MODEL_MAIN]":
(PID.TID 0000.0001)           User time:  9.25999957
(PID.TID 0000.0001)         System time:  0.109999996
(PID.TID 0000.0001)     Wall clock time:  9.41018498
(PID.TID 0000.0001)          No. starts: 1
(PID.TID 0000.0001)           No. stops: 1
(PID.TID 0000.0001)   Seconds in section "INITIALISE_VARIA    [THE_MAIN_LOOP]":
(PID.TID 0000.0001)           User time:  0.959999979
(PID.TID 0000.0001)         System time:  0.0500000007
(PID.TID 0000.0001)     Wall clock time:  1.05206299
(PID.TID 0000.0001)          No. starts: 1
(PID.TID 0000.0001)           No. stops: 1
(PID.TID 0000.0001)   Seconds in section "WRITE_STATE         [THE_MAIN_LOOP]":
(PID.TID 0000.0001)           User time:  0.0199999809
(PID.TID 0000.0001)         System time:  0.00999999791
(PID.TID 0000.0001)     Wall clock time:  0.0282210112
(PID.TID 0000.0001)          No. starts: 1
(PID.TID 0000.0001)           No. stops: 1
(PID.TID 0000.0001)   Seconds in section "MONITOR             [THE_MAIN_LOOP]":
(PID.TID 0000.0001)           User time:  0.0199999809
(PID.TID 0000.0001)         System time:  0.
(PID.TID 0000.0001)     Wall clock time:  0.024747014
(PID.TID 0000.0001)          No. starts: 1
(PID.TID 0000.0001)           No. stops: 1
(PID.TID 0000.0001)   Seconds in section "MAIN LOOP           [THE_MAIN_LOOP]":
(PID.TID 0000.0001)           User time:  8.25999963
(PID.TID 0000.0001)         System time:  0.049999997
(PID.TID 0000.0001)     Wall clock time:  8.30469799
(PID.TID 0000.0001)          No. starts: 1
(PID.TID 0000.0001)           No. stops: 1
(PID.TID 0000.0001)   Seconds in section "FORWARD_STEP        [THE_MAIN_LOOP]":
(PID.TID 0000.0001)           User time:  8.25999963
(PID.TID 0000.0001)         System time:  0.049999997
(PID.TID 0000.0001)     Wall clock time:  8.30287778
(PID.TID 0000.0001)          No. starts: 20
(PID.TID 0000.0001)           No. stops: 20
(PID.TID 0000.0001)   Seconds in section "EXTERNAL_FIELDS_LOAD[THE_MAIN_LOOP]":
(PID.TID 0000.0001)           User time:  0.0400000811
(PID.TID 0000.0001)         System time:  0.
(PID.TID 0000.0001)     Wall clock time:  0.0288059711
(PID.TID 0000.0001)          No. starts: 20
(PID.TID 0000.0001)           No. stops: 20
(PID.TID 0000.0001)   Seconds in section "THERMODYNAMICS      [THE_MAIN_LOOP]":
(PID.TID 0000.0001)           User time:  3.87999964
(PID.TID 0000.0001)         System time:  0.0200000033
(PID.TID 0000.0001)     Wall clock time:  3.91167223
(PID.TID 0000.0001)          No. starts: 20
(PID.TID 0000.0001)           No. stops: 20
(PID.TID 0000.0001)   Seconds in section "STATEKPP      [KPP_CALC]":
(PID.TID 0000.0001)           User time:  0.379999876
(PID.TID 0000.0001)         System time:  0.
(PID.TID 0000.0001)     Wall clock time:  0.359833121
(PID.TID 0000.0001)          No. starts: 20
(PID.TID 0000.0001)           No. stops: 20
(PID.TID 0000.0001)   Seconds in section "KPPMIX [KPP_CALC]":
(PID.TID 0000.0001)           User time:  1.18000066
(PID.TID 0000.0001)         System time:  0.0100000054
(PID.TID 0000.0001)     Wall clock time:  1.1952318
(PID.TID 0000.0001)          No. starts: 20
(PID.TID 0000.0001)           No. stops: 20
(PID.TID 0000.0001)   Seconds in section "DYNAMICS            [THE_MAIN_LOOP]":
(PID.TID 0000.0001)           User time:  3.23000014
(PID.TID 0000.0001)         System time:  0.0199999958
(PID.TID 0000.0001)     Wall clock time:  3.253299
(PID.TID 0000.0001)          No. starts: 20
(PID.TID 0000.0001)           No. stops: 20
(PID.TID 0000.0001)   Seconds in section "SOLVE_FOR_PRESSURE  [THE_MAIN_LOOP]":
(PID.TID 0000.0001)           User time:  0.329998493
(PID.TID 0000.0001)         System time:  0.
(PID.TID 0000.0001)     Wall clock time:  0.327648878
(PID.TID 0000.0001)          No. starts: 20
(PID.TID 0000.0001)           No. stops: 20
(PID.TID 0000.0001)   Seconds in section "THE_CORRECTION_STEP [THE_MAIN_LOOP]":
(PID.TID 0000.0001)           User time:  0.120000839
(PID.TID 0000.0001)         System time:  0.
(PID.TID 0000.0001)     Wall clock time:  0.112768888
(PID.TID 0000.0001)          No. starts: 20
(PID.TID 0000.0001)           No. stops: 20
(PID.TID 0000.0001)   Seconds in section "BLOCKING_EXCHANGES  [THE_MAIN_LOOP]":
(PID.TID 0000.0001)           User time:  0.10000062
(PID.TID 0000.0001)         System time:  0.
(PID.TID 0000.0001)     Wall clock time:  0.106690884
(PID.TID 0000.0001)          No. starts: 20
(PID.TID 0000.0001)           No. stops: 20
(PID.TID 0000.0001)   Seconds in section "DO_THE_MODEL_IO     [THE_MAIN_LOOP]":
(PID.TID 0000.0001)           User time:  0.0599999428
(PID.TID 0000.0001)         System time:  0.00999999791
(PID.TID 0000.0001)     Wall clock time:  0.0626114607
(PID.TID 0000.0001)          No. starts: 20
(PID.TID 0000.0001)           No. stops: 20
(PID.TID 0000.0001)   Seconds in section "WRITE_CHECKPOINT    [THE_MAIN_LOOP]":
(PID.TID 0000.0001)           User time:  0.00999975204
(PID.TID 0000.0001)         System time:  0.
(PID.TID 0000.0001)     Wall clock time:  0.00196027756
(PID.TID 0000.0001)          No. starts: 20
(PID.TID 0000.0001)           No. stops: 20
(PID.TID 0000.0001)   Seconds in section "WRITE_CHECKPOINT   [THE_MODEL_MAIN]":
(PID.TID 0000.0001)           User time:  0.120000839
(PID.TID 0000.0001)         System time:  0.0300000012
(PID.TID 0000.0001)     Wall clock time:  0.150944948
(PID.TID 0000.0001)          No. starts: 1
(PID.TID 0000.0001)           No. stops: 1
(PID.TID 0000.0001) // ======================================================
(PID.TID 0000.0001) // Tile <-> Tile communication statistics
(PID.TID 0000.0001) // ======================================================
(PID.TID 0000.0001) // o Tile number: 000001
(PID.TID 0000.0001) //         No. X exchanges =              0
(PID.TID 0000.0001) //            Max. X spins =              0
(PID.TID 0000.0001) //            Min. X spins =     1000000000
(PID.TID 0000.0001) //          Total. X spins =              0
(PID.TID 0000.0001) //            Avg. X spins =       0.00E+00
(PID.TID 0000.0001) //         No. Y exchanges =              0
(PID.TID 0000.0001) //            Max. Y spins =              0
(PID.TID 0000.0001) //            Min. Y spins =     1000000000
(PID.TID 0000.0001) //          Total. Y spins =              0
(PID.TID 0000.0001) //            Avg. Y spins =       0.00E+00
(PID.TID 0000.0001) // o Thread number: 000001
(PID.TID 0000.0001) //            No. barriers =          16616
(PID.TID 0000.0001) //      Max. barrier spins =              1
(PID.TID 0000.0001) //      Min. barrier spins =              1
(PID.TID 0000.0001) //     Total barrier spins =          16616
(PID.TID 0000.0001) //      Avg. barrier spins =       1.00E+00
