(PID.TID 0000.0001) 
(PID.TID 0000.0001) // ======================================================
(PID.TID 0000.0001) //                      MITgcm UV
(PID.TID 0000.0001) //                      =========
(PID.TID 0000.0001) // ======================================================
(PID.TID 0000.0001) // execution environment starting up...
(PID.TID 0000.0001) 
(PID.TID 0000.0001) // MITgcmUV version:  checkpoint59f
(PID.TID 0000.0001) // Build user:        jmc
(PID.TID 0000.0001) // Build host:        faulks
(PID.TID 0000.0001) // Build date:        Tue Sep  4 14:47:47 EDT 2007
(PID.TID 0000.0001) 
(PID.TID 0000.0001) // =======================================================
(PID.TID 0000.0001) // Execution Environment parameter file "eedata"
(PID.TID 0000.0001) // =======================================================
(PID.TID 0000.0001) ># Example "eedata" file
(PID.TID 0000.0001) ># Lines beginning "#" are comments
(PID.TID 0000.0001) ># nTx - No. threads per process in X
(PID.TID 0000.0001) ># nTy - No. threads per process in Y
(PID.TID 0000.0001) > &EEPARMS
(PID.TID 0000.0001) > nTx=1,
(PID.TID 0000.0001) > nTy=1,
(PID.TID 0000.0001) > &
(PID.TID 0000.0001) ># Note: Some systems use & as the
(PID.TID 0000.0001) ># namelist terminator. Other systems
(PID.TID 0000.0001) ># use a / character (as shown here).
(PID.TID 0000.0001) 
(PID.TID 0000.0001) // =======================================================
(PID.TID 0000.0001) // Computational Grid Specification ( see files "SIZE.h" )
(PID.TID 0000.0001) //                                  ( and "eedata"       )
(PID.TID 0000.0001) // =======================================================
(PID.TID 0000.0001)      nPx =    1 ; /* No. processes in X */
(PID.TID 0000.0001)      nPy =    1 ; /* No. processes in Y */
(PID.TID 0000.0001)      nSx =    2 ; /* No. tiles in X per process */
(PID.TID 0000.0001)      nSy =    1 ; /* No. tiles in Y per process */
(PID.TID 0000.0001)      sNx =   10 ; /* Tile size in X */
(PID.TID 0000.0001)      sNy =   16 ; /* Tile size in Y */
(PID.TID 0000.0001)      OLx =    4 ; /* Tile overlap distance in X */
(PID.TID 0000.0001)      OLy =    4 ; /* Tile overlap distance in Y */
(PID.TID 0000.0001)      nTx =    1 ; /* No. threads in X per process */
(PID.TID 0000.0001)      nTy =    1 ; /* No. threads in Y per process */
(PID.TID 0000.0001)       Nr =   23 ; /* No. levels in the vertical   */
(PID.TID 0000.0001)       nX =   20 ; /* Total domain size in X ( = nPx*nSx*sNx ) */
(PID.TID 0000.0001)       nY =   16 ; /* Total domain size in Y ( = nPy*nSy*sNy ) */
(PID.TID 0000.0001)   nTiles =    2 ; /* Total no. tiles per process ( = nSx*nSy ) */
(PID.TID 0000.0001)   nProcs =    1 ; /* Total no. processes ( = nPx*nPy ) */
(PID.TID 0000.0001) nThreads =    1 ; /* Total no. threads per process ( = nTx*nTy ) */
(PID.TID 0000.0001) usingMPI =    F ; /* Flag used to control whether MPI is in use */
(PID.TID 0000.0001)                   /*  note: To execute a program with MPI calls */
(PID.TID 0000.0001)                   /*  it must be launched appropriately e.g     */
(PID.TID 0000.0001)                   /*  "mpirun -np 64 ......"                    */
(PID.TID 0000.0001) useCoupler=   F ; /* Flag used to control communications with */
(PID.TID 0000.0001)                   /*  other model components, through a coupler */
(PID.TID 0000.0001) 
(PID.TID 0000.0001) // ======================================================
(PID.TID 0000.0001) // Mapping of tiles to threads
(PID.TID 0000.0001) // ======================================================
(PID.TID 0000.0001) // -o- Thread   1, tiles (   1:   2,   1:   1)
(PID.TID 0000.0001) 
(PID.TID 0000.0001) // ======================================================
(PID.TID 0000.0001) // Tile <-> Tile connectvity table
(PID.TID 0000.0001) // ======================================================
(PID.TID 0000.0001) // Tile number: 000001 (process no. = 000001)
(PID.TID 0000.0001) //        WEST: Tile = 000002, Process = 000001, Comm = put
(PID.TID 0000.0001) //                bi = 000002, bj = 000001
(PID.TID 0000.0001) //        EAST: Tile = 000002, Process = 000001, Comm = put
(PID.TID 0000.0001) //                bi = 000002, bj = 000001
(PID.TID 0000.0001) //       SOUTH: Tile = 000001, Process = 000001, Comm = put
(PID.TID 0000.0001) //                bi = 000001, bj = 000001
(PID.TID 0000.0001) //       NORTH: Tile = 000001, Process = 000001, Comm = put
(PID.TID 0000.0001) //                bi = 000001, bj = 000001
(PID.TID 0000.0001) // Tile number: 000002 (process no. = 000001)
(PID.TID 0000.0001) //        WEST: Tile = 000001, Process = 000001, Comm = put
(PID.TID 0000.0001) //                bi = 000001, bj = 000001
(PID.TID 0000.0001) //        EAST: Tile = 000001, Process = 000001, Comm = put
(PID.TID 0000.0001) //                bi = 000001, bj = 000001
(PID.TID 0000.0001) //       SOUTH: Tile = 000002, Process = 000001, Comm = put
(PID.TID 0000.0001) //                bi = 000002, bj = 000001
(PID.TID 0000.0001) //       NORTH: Tile = 000002, Process = 000001, Comm = put
(PID.TID 0000.0001) //                bi = 000002, bj = 000001
(PID.TID 0000.0001) 
(PID.TID 0000.0001) // =======================================================
(PID.TID 0000.0001) // Model parameter file "data"
(PID.TID 0000.0001) // =======================================================
(PID.TID 0000.0001) ># ====================
(PID.TID 0000.0001) ># | Model parameters |
(PID.TID 0000.0001) ># ====================
(PID.TID 0000.0001) >#
(PID.TID 0000.0001) ># Continuous equation parameters
(PID.TID 0000.0001) >#
(PID.TID 0000.0001) >#   tRef            - Reference vertical potential temperature          (deg C)
(PID.TID 0000.0001) >#   sRef            - Reference vertical salinity                         (PSU)
(PID.TID 0000.0001) >#   viscAh          - Horizontal eddy viscosity coefficient             (m^2/s)
(PID.TID 0000.0001) >#   viscAz          - Vertical eddy viscosity coefficient               (m^2/s)
(PID.TID 0000.0001) >#   diffKhT         - Horizontal temperature diffusivity                (m^2/s)
(PID.TID 0000.0001) >#   diffKzT         - Vertical temperature diffusivity                  (m^2/s)
(PID.TID 0000.0001) >#   diffKhS         - Horizontal salt diffusivity                       (m^2/s)
(PID.TID 0000.0001) >#   diffKzS         - Vertical salt diffusivity                         (m^2/s)
(PID.TID 0000.0001) >#   tAlpha          - Linear EOS thermal expansion coefficient           (1/oC)
(PID.TID 0000.0001) >#   sBeta           - Linear EOS haline contraction coefficient         (1/ppt)
(PID.TID 0000.0001) >#   gravity         - Acceleration due to gravity                       (m/s^2)
(PID.TID 0000.0001) >#   rigidLid        - Set to true to use rigid lid
(PID.TID 0000.0001) >#   implicitFreeSurface - Set to true to use implicit free surface
(PID.TID 0000.0001) >#   eosType         - Flag for linear or polynomial equation of state
(PID.TID 0000.0001) >#   GMkbackground   - background value of GM/Redi coefficient
(PID.TID 0000.0001) >#   momAdvection    - On/Off flag for momentum self transport
(PID.TID 0000.0001) >#   momViscosity    - On/Off flag for momentum mixing
(PID.TID 0000.0001) >#
(PID.TID 0000.0001) > &PARM01
(PID.TID 0000.0001) > viscAz             = 1.E-3,
(PID.TID 0000.0001) > diffKzT            = 1.E-5,
(PID.TID 0000.0001) > diffKzS            = 1.E-5,
(PID.TID 0000.0001) > viscAh             = 5.0E4,
(PID.TID 0000.0001) > viscA4             = 5.e12,
(PID.TID 0000.0001) > diffKhT            = 1.0E3,
(PID.TID 0000.0001) > diffKhS            = 1.0E3,
(PID.TID 0000.0001) > rotationPeriod     = 86400.,
(PID.TID 0000.0001) > tAlpha             = 2.E-4,
(PID.TID 0000.0001) > sBeta              = 7.4E-4,
(PID.TID 0000.0001) > gravity            = 9.81,
(PID.TID 0000.0001) > rigidLid           = .FALSE.,
(PID.TID 0000.0001) > implicitFreeSurface= .TRUE.,
(PID.TID 0000.0001) > implicitDiffusion  = .TRUE.,
(PID.TID 0000.0001) > useCDscheme        = .TRUE.,
(PID.TID 0000.0001) > useNHMTerms        = .TRUE.,
(PID.TID 0000.0001) > eosType            = 'POLY3',
(PID.TID 0000.0001) > momAdvection       = .TRUE.,
(PID.TID 0000.0001) > momViscosity       = .TRUE.,
(PID.TID 0000.0001) > implicitDiffusion  = .TRUE.,
(PID.TID 0000.0001) > implicitViscosity  = .TRUE.,
(PID.TID 0000.0001) > no_slip_bottom     = .TRUE.,
(PID.TID 0000.0001) > no_slip_sides      = .FALSE.,
(PID.TID 0000.0001) > readBinaryPrec     = 32,
(PID.TID 0000.0001) >#- not safe to use globalFiles in multi-processors runs
(PID.TID 0000.0001) >#globalFiles        = .TRUE.
(PID.TID 0000.0001) > &
(PID.TID 0000.0001) >
(PID.TID 0000.0001) ># Elliptic solver parameters
(PID.TID 0000.0001) >#
(PID.TID 0000.0001) >#   cg2dMaxIters       - Maximum number of 2d solver iterations
(PID.TID 0000.0001) >#   cg2dTargetResidual - Solver target residual
(PID.TID 0000.0001) >#
(PID.TID 0000.0001) > &PARM02
(PID.TID 0000.0001) > cg2dMaxIters       = 1000,
(PID.TID 0000.0001) > cg2dTargetResidual = 1.E-13,
(PID.TID 0000.0001) > &
(PID.TID 0000.0001) >
(PID.TID 0000.0001) ># Time stepping parameters
(PID.TID 0000.0001) >#
(PID.TID 0000.0001) >#   startTime         - Integration starting time                (s)
(PID.TID 0000.0001) >#   endTime           - Integration ending time                  (s)
(PID.TID 0000.0001) >#   tauCD             - CD scheme coupling timescale             (s)
(PID.TID 0000.0001) >#   deltaTMom         - Timestep for momemtum equations          (s)
(PID.TID 0000.0001) >#   deltaTtracer      - Tracer timestep                          (s)
(PID.TID 0000.0001) >#   deltaTClock       - Timestep used as model "clock"           (s)
(PID.TID 0000.0001) >#   abEps             - Adams-Bashforth stabilising factor
(PID.TID 0000.0001) >#   pChkPtFreq        - Frequency of permanent check pointing    (s)
(PID.TID 0000.0001) >#   chkPtFreq         - Frequency of rolling check pointing      (s)
(PID.TID 0000.0001) >#   dumpFreq          - Frequency at which model state is stored (s)
(PID.TID 0000.0001) >#   tauThetaClimRelax - Relaxation to climatology time scale     (s)
(PID.TID 0000.0001) >#   tauSaltClimRelax  - Relaxation to climatology time scale     (s)
(PID.TID 0000.0001) >#
(PID.TID 0000.0001) > &PARM03
(PID.TID 0000.0001) > baseTime   = 21600.,
(PID.TID 0000.0001) > startTime  = 21600.,
(PID.TID 0000.0001) > endTime    = 93600.,
(PID.TID 0000.0001) > deltaTmom  = 3600.0,
(PID.TID 0000.0001) > TauCD      = 172800.
(PID.TID 0000.0001) > cAdjFreq   = 0.,
(PID.TID 0000.0001) > abEps      = 0.1,
(PID.TID 0000.0001) > pChkptFreq = 0.0,
(PID.TID 0000.0001) > chkptFreq  = 0.0,
(PID.TID 0000.0001) > dumpFreq   = 86400.,
(PID.TID 0000.0001) > tauSaltClimRelax = 2592000.0,
(PID.TID 0000.0001) > tauThetaClimRelax = 2592000.0,
(PID.TID 0000.0001) > periodicExternalForcing = .TRUE.,
(PID.TID 0000.0001) > externForcingPeriod = 43200.0,
(PID.TID 0000.0001) > externForcingCycle = 2764800.0,
(PID.TID 0000.0001) > monitorFreq=1.,
(PID.TID 0000.0001) > &
(PID.TID 0000.0001) >
(PID.TID 0000.0001) ># Gridding parameters
(PID.TID 0000.0001) >#
(PID.TID 0000.0001) >#   usingSphericalPolarGrid - On/Off flag for spherical polar coordinates
(PID.TID 0000.0001) >#   delX                    - Zonal grid spacing         (degrees)
(PID.TID 0000.0001) >#   delY                    - Meridional grid spacing    (degrees)
(PID.TID 0000.0001) >#   delZ                    - Vertical grid spacing      (m)
(PID.TID 0000.0001) >#   phiMin                  - Southern boundary latitude (degrees)
(PID.TID 0000.0001) >#
(PID.TID 0000.0001) > &PARM04
(PID.TID 0000.0001) > usingSphericalPolarGrid = .TRUE.,
(PID.TID 0000.0001) > delX   = 20*2.,
(PID.TID 0000.0001) > delY   = 16*2.,
(PID.TID 0000.0001) > delZ= 10., 10., 15., 20., 20., 25., 35., 50., 75.,
(PID.TID 0000.0001) >       100., 150., 200., 275., 350., 415., 450.,
(PID.TID 0000.0001) >       500., 500., 500., 500., 500., 500., 500.
(PID.TID 0000.0001) > phiMin = 10.,
(PID.TID 0000.0001) > thetaMin= -42.
(PID.TID 0000.0001) > &
(PID.TID 0000.0001) >
(PID.TID 0000.0001) ># Input datasets
(PID.TID 0000.0001) >#
(PID.TID 0000.0001) >#   bathyFile       - File containing bathymetry
(PID.TID 0000.0001) >#   hydrogThetaFile - File containing initial potential temperature data
(PID.TID 0000.0001) >#   hydrogSaltFile  - File containing initial salinity data
(PID.TID 0000.0001) >#   zonalWindFile   - File containing zonal wind data
(PID.TID 0000.0001) >#   meridWindFile   - File containing meridional wind data
(PID.TID 0000.0001) >#   thetaClimFile   - File containing theta climatology used for relaxation
(PID.TID 0000.0001) >#   saltClimFile    - File containing salt climatology used for relaxation
(PID.TID 0000.0001) >#
(PID.TID 0000.0001) > &PARM05
(PID.TID 0000.0001) > bathyFile       = 'kf_topog',
(PID.TID 0000.0001) > hydrogThetaFile = 'kf_climtheta',
(PID.TID 0000.0001) > hydrogSaltFile  = 'kf_climsalt',
(PID.TID 0000.0001) > zonalWindFile   = 'kf_tx',
(PID.TID 0000.0001) > meridWindFile   = 'kf_ty',
(PID.TID 0000.0001) > thetaClimFile   = 'kf_sst',
(PID.TID 0000.0001) > saltClimFile    = 'kf_sss',
(PID.TID 0000.0001) > surfQFile       = 'kf_qnet',
(PID.TID 0000.0001) > EmPmRFile       = 'kf_empmr',
(PID.TID 0000.0001) > surfQswFile     = 'kf_sw',
(PID.TID 0000.0001) > &
(PID.TID 0000.0001) 
(PID.TID 0000.0001) S/R INI_PARMS ; starts to read PARM01
(PID.TID 0000.0001) S/R INI_PARMS ; read PARM01 : OK
(PID.TID 0000.0001) S/R INI_PARMS ; starts to read PARM02
(PID.TID 0000.0001) S/R INI_PARMS ; read PARM02 : OK
(PID.TID 0000.0001) S/R INI_PARMS ; starts to read PARM03
(PID.TID 0000.0001) S/R INI_PARMS ; read PARM03 : OK
(PID.TID 0000.0001) S/R INI_PARMS ; starts to read PARM04
(PID.TID 0000.0001) S/R INI_PARMS ; read PARM04 : OK
(PID.TID 0000.0001) S/R INI_PARMS ; starts to read PARM05
(PID.TID 0000.0001) S/R INI_PARMS ; read PARM05 : OK
(PID.TID 0000.0001)  PACKAGES_BOOT: opening data.pkg
(PID.TID 0000.0001)  OPEN_COPY_DATA_FILE: opening file data.pkg
(PID.TID 0000.0001) // =======================================================
(PID.TID 0000.0001) // Parameter file "data.pkg"
(PID.TID 0000.0001) // =======================================================
(PID.TID 0000.0001) ># Packages
(PID.TID 0000.0001) > &PACKAGES
(PID.TID 0000.0001) >  useGMRedi=.FALSE.,
(PID.TID 0000.0001) >  useKPP=.TRUE.,
(PID.TID 0000.0001) >  useECCO=.FALSE.,
(PID.TID 0000.0001) >  usediagnostics=.TRUE.,
(PID.TID 0000.0001) > &
(PID.TID 0000.0001) 
(PID.TID 0000.0001)  PACKAGES_BOOT: finished reading data.pkg
(PID.TID 0000.0001)  KPP_INIT: opening data.kpp
(PID.TID 0000.0001)  OPEN_COPY_DATA_FILE: opening file data.kpp
(PID.TID 0000.0001) // =======================================================
(PID.TID 0000.0001) // Parameter file "data.kpp"
(PID.TID 0000.0001) // =======================================================
(PID.TID 0000.0001) ># KPP parameters
(PID.TID 0000.0001) > &KPP_PARM01
(PID.TID 0000.0001) > KPPmixingMaps   = .FALSE.,
(PID.TID 0000.0001) > KPPwriteState   = .TRUE.,
(PID.TID 0000.0001) > &
(PID.TID 0000.0001) 
(PID.TID 0000.0001)  KPP_INIT: finished reading data.kpp
(PID.TID 0000.0001)  DIAGNOSTICS_READPARMS: opening data.diagnostics
(PID.TID 0000.0001)  OPEN_COPY_DATA_FILE: opening file data.diagnostics
(PID.TID 0000.0001) // =======================================================
(PID.TID 0000.0001) // Parameter file "data.diagnostics"
(PID.TID 0000.0001) // =======================================================
(PID.TID 0000.0001) ># Diagnostic Package Choices
(PID.TID 0000.0001) >#-----------------
(PID.TID 0000.0001) ># for each output-stream:
(PID.TID 0000.0001) >#  filename(n) : prefix of the output file name (only 8.c long) for outp.stream n
(PID.TID 0000.0001) >#  frequency(n):< 0 : write snap-shot output every |frequency| seconds
(PID.TID 0000.0001) >#               > 0 : write time-average output every frequency seconds
(PID.TID 0000.0001) >#  timePhase(n)     : write at time = timePhase + multiple of |frequency|
(PID.TID 0000.0001) >#  levels(:,n) : list of levels to write to file (Notes: declared as REAL)
(PID.TID 0000.0001) >#                 when this entry is missing, select all common levels of this list
(PID.TID 0000.0001) >#  fields(:,n) : list of diagnostics fields (8.c) (see "available_diagnostics" file
(PID.TID 0000.0001) >#                 for the list of all available diag. in this particular config)
(PID.TID 0000.0001) >#-----------------
(PID.TID 0000.0001) ># This example dumps all KPP diagnostics as
(PID.TID 0000.0001) ># a snapshot every day, at mid day (t=12.h, baseTime=6.h, deltaT=1.h => iter=6)
(PID.TID 0000.0001) > &diagnostics_list
(PID.TID 0000.0001) >  frequency(1) = -86400.,
(PID.TID 0000.0001) >   fields(1,1) = 'KPPviscA',
(PID.TID 0000.0001) >   filename(1) = 'KPPviscA',
(PID.TID 0000.0001) >  frequency(2) = -86400.,
(PID.TID 0000.0001) >   fields(1,2) = 'KPPdiffS',
(PID.TID 0000.0001) >   filename(2) = 'KPPdiffS',
(PID.TID 0000.0001) >  frequency(3) = -86400.,
(PID.TID 0000.0001) >   fields(1,3) = 'KPPdiffT',
(PID.TID 0000.0001) >   filename(3) = 'KPPdiffT',
(PID.TID 0000.0001) >  frequency(4) = -86400.,
(PID.TID 0000.0001) >   fields(1,4) = 'KPPghat ',
(PID.TID 0000.0001) >   filename(4) = 'KPP_ghat',
(PID.TID 0000.0001) >  frequency(5) = -86400.,
(PID.TID 0000.0001) >   fields(1,5) = 'KPPhbl  ',
(PID.TID 0000.0001) >   filename(5) = 'KPP_hbl',
(PID.TID 0000.0001) >  frequency(6) = -86400.,
(PID.TID 0000.0001) >   fields(1,6) = 'KPPfrac ',
(PID.TID 0000.0001) >   filename(6) = 'KPPfrac',
(PID.TID 0000.0001) >  frequency(7) = -86400.,
(PID.TID 0000.0001) >   fields(1,7) = 'KPPmld  ',
(PID.TID 0000.0001) >   filename(7) = 'KPPmld',
(PID.TID 0000.0001) > &
(PID.TID 0000.0001) >
(PID.TID 0000.0001) ># Parameter for Diagnostics of per level statistics:
(PID.TID 0000.0001) >#-----------------
(PID.TID 0000.0001) ># for each output-stream:
(PID.TID 0000.0001) >#  stat_fname(n) : prefix of the output file name (only 8.c long) for outp.stream n
(PID.TID 0000.0001) >#  stat_freq(n):< 0 : write snap-shot output every |stat_freq| seconds
(PID.TID 0000.0001) >#               > 0 : write time-average output every stat_freq seconds
(PID.TID 0000.0001) >#  stat_phase(n)    : write at time = stat_phase + multiple of |stat_freq|
(PID.TID 0000.0001) >#  stat_region(:,n) : list of "regions" (default: 1 region only=global)
(PID.TID 0000.0001) >#  stat_fields(:,n) : list of diagnostics fields (8.c) (see "available_diagnostics.log"
(PID.TID 0000.0001) >#                 file for the list of all available diag. in this particular config)
(PID.TID 0000.0001) >#-----------------
(PID.TID 0000.0001) > &DIAG_STATIS_PARMS
(PID.TID 0000.0001) >#- an example just to check the agreement with MONITOR output:
(PID.TID 0000.0001) >#stat_fields(1,1)= 'ETAN    ','UVEL    ','VVEL    ','WVEL    ', 'THETA   ',
(PID.TID 0000.0001) >#   stat_fname(1)= 'dynStDiag',
(PID.TID 0000.0001) >#    stat_freq(1)= -864000.,
(PID.TID 0000.0001) >#   stat_phase(1)= 0.,
(PID.TID 0000.0001) > &
(PID.TID 0000.0001) >
(PID.TID 0000.0001) 
(PID.TID 0000.0001) S/R DIAGNOSTICS_READPARMS, read namelist "diagnostics_list": start
(PID.TID 0000.0001) S/R DIAGNOSTICS_READPARMS, read namelist "diagnostics_list": OK
(PID.TID 0000.0001) S/R DIAGNOSTICS_READPARMS, read namelist "DIAG_STATIS_PARMS": start
(PID.TID 0000.0001) S/R DIAGNOSTICS_READPARMS, read namelist "DIAG_STATIS_PARMS": OK
(PID.TID 0000.0001) -----------------------------------------------------
(PID.TID 0000.0001)  DIAGNOSTICS_READPARMS: active diagnostics summary:
(PID.TID 0000.0001) -----------------------------------------------------
(PID.TID 0000.0001) Creating Output Stream: KPPviscA
(PID.TID 0000.0001) Output Frequency:     -86400.000000 ; Phase:       43200.000000
(PID.TID 0000.0001)  Averaging Freq.:          0.000000 , Phase:           0.000000 , Cycle:  1
(PID.TID 0000.0001)  Levels:    will be set later
(PID.TID 0000.0001)  Fields:    KPPviscA
(PID.TID 0000.0001) Creating Output Stream: KPPdiffS
(PID.TID 0000.0001) Output Frequency:     -86400.000000 ; Phase:       43200.000000
(PID.TID 0000.0001)  Averaging Freq.:          0.000000 , Phase:           0.000000 , Cycle:  1
(PID.TID 0000.0001)  Levels:    will be set later
(PID.TID 0000.0001)  Fields:    KPPdiffS
(PID.TID 0000.0001) Creating Output Stream: KPPdiffT
(PID.TID 0000.0001) Output Frequency:     -86400.000000 ; Phase:       43200.000000
(PID.TID 0000.0001)  Averaging Freq.:          0.000000 , Phase:           0.000000 , Cycle:  1
(PID.TID 0000.0001)  Levels:    will be set later
(PID.TID 0000.0001)  Fields:    KPPdiffT
(PID.TID 0000.0001) Creating Output Stream: KPP_ghat
(PID.TID 0000.0001) Output Frequency:     -86400.000000 ; Phase:       43200.000000
(PID.TID 0000.0001)  Averaging Freq.:          0.000000 , Phase:           0.000000 , Cycle:  1
(PID.TID 0000.0001)  Levels:    will be set later
(PID.TID 0000.0001)  Fields:    KPPghat
(PID.TID 0000.0001) Creating Output Stream: KPP_hbl
(PID.TID 0000.0001) Output Frequency:     -86400.000000 ; Phase:       43200.000000
(PID.TID 0000.0001)  Averaging Freq.:          0.000000 , Phase:           0.000000 , Cycle:  1
(PID.TID 0000.0001)  Levels:    will be set later
(PID.TID 0000.0001)  Fields:    KPPhbl
(PID.TID 0000.0001) Creating Output Stream: KPPfrac
(PID.TID 0000.0001) Output Frequency:     -86400.000000 ; Phase:       43200.000000
(PID.TID 0000.0001)  Averaging Freq.:          0.000000 , Phase:           0.000000 , Cycle:  1
(PID.TID 0000.0001)  Levels:    will be set later
(PID.TID 0000.0001)  Fields:    KPPfrac
(PID.TID 0000.0001) Creating Output Stream: KPPmld
(PID.TID 0000.0001) Output Frequency:     -86400.000000 ; Phase:       43200.000000
(PID.TID 0000.0001)  Averaging Freq.:          0.000000 , Phase:           0.000000 , Cycle:  1
(PID.TID 0000.0001)  Levels:    will be set later
(PID.TID 0000.0001)  Fields:    KPPmld
(PID.TID 0000.0001) -----------------------------------------------------
(PID.TID 0000.0001)  DIAGNOSTICS_READPARMS: statistics diags. summary:
(PID.TID 0000.0001) -----------------------------------------------------
(PID.TID 0000.0001) 
(PID.TID 0000.0001) SET_PARMS: done
(PID.TID 0000.0001) Enter INI_VERTICAL_GRID: setInterFDr=    T ; setCenterDr=    F
(PID.TID 0000.0001) %MON XC_max                       =  -3.0000000000000E+00
(PID.TID 0000.0001) %MON XC_min                       =  -4.1000000000000E+01
(PID.TID 0000.0001) %MON XC_mean                      =  -2.2000000000000E+01
(PID.TID 0000.0001) %MON XC_sd                        =   1.1532562594671E+01
(PID.TID 0000.0001) %MON XG_max                       =  -4.0000000000000E+00
(PID.TID 0000.0001) %MON XG_min                       =  -4.2000000000000E+01
(PID.TID 0000.0001) %MON XG_mean                      =  -2.3000000000000E+01
(PID.TID 0000.0001) %MON XG_sd                        =   1.1532562594671E+01
(PID.TID 0000.0001) %MON DXC_max                      =   2.1826966005878E+05
(PID.TID 0000.0001) %MON DXC_min                      =   1.6781340848749E+05
(PID.TID 0000.0001) %MON DXC_mean                     =   1.9727395728441E+05
(PID.TID 0000.0001) %MON DXC_sd                       =   1.5731168072696E+04
(PID.TID 0000.0001) %MON DXF_max                      =   2.1826966005878E+05
(PID.TID 0000.0001) %MON DXF_min                      =   1.6781340848749E+05
(PID.TID 0000.0001) %MON DXF_mean                     =   1.9727395728441E+05
(PID.TID 0000.0001) %MON DXF_sd                       =   1.5731168072696E+04
(PID.TID 0000.0001) %MON DXG_max                      =   2.1897687543479E+05
(PID.TID 0000.0001) %MON DXG_min                      =   1.7033377132268E+05
(PID.TID 0000.0001) %MON DXG_mean                     =   1.9892312861058E+05
(PID.TID 0000.0001) %MON DXG_sd                       =   1.5180938630473E+04
(PID.TID 0000.0001) %MON DXV_max                      =   2.1897687543479E+05
(PID.TID 0000.0001) %MON DXV_min                      =   1.7033377132268E+05
(PID.TID 0000.0001) %MON DXV_mean                     =   1.9892312861058E+05
(PID.TID 0000.0001) %MON DXV_sd                       =   1.5180938630473E+04
(PID.TID 0000.0001) %MON YC_max                       =   4.1000000000000E+01
(PID.TID 0000.0001) %MON YC_min                       =   1.1000000000000E+01
(PID.TID 0000.0001) %MON YC_mean                      =   2.6000000000000E+01
(PID.TID 0000.0001) %MON YC_sd                        =   9.2195444572929E+00
(PID.TID 0000.0001) %MON YG_max                       =   4.0000000000000E+01
(PID.TID 0000.0001) %MON YG_min                       =   1.0000000000000E+01
(PID.TID 0000.0001) %MON YG_mean                      =   2.5000000000000E+01
(PID.TID 0000.0001) %MON YG_sd                        =   9.2195444572929E+00
(PID.TID 0000.0001) %MON DYC_max                      =   2.2235494670408E+05
(PID.TID 0000.0001) %MON DYC_min                      =   2.2235494670408E+05
(PID.TID 0000.0001) %MON DYC_mean                     =   2.2235494670408E+05
(PID.TID 0000.0001) %MON DYC_sd                       =   4.6566128730774E-10
(PID.TID 0000.0001) %MON DYF_max                      =   2.2235494670408E+05
(PID.TID 0000.0001) %MON DYF_min                      =   2.2235494670408E+05
(PID.TID 0000.0001) %MON DYF_mean                     =   2.2235494670408E+05
(PID.TID 0000.0001) %MON DYF_sd                       =   4.6566128730774E-10
(PID.TID 0000.0001) %MON DYG_max                      =   2.2235494670408E+05
(PID.TID 0000.0001) %MON DYG_min                      =   2.2235494670408E+05
(PID.TID 0000.0001) %MON DYG_mean                     =   2.2235494670408E+05
(PID.TID 0000.0001) %MON DYG_sd                       =   4.6566128730774E-10
(PID.TID 0000.0001) %MON DYU_max                      =   2.2235494670408E+05
(PID.TID 0000.0001) %MON DYU_min                      =   2.2235494670408E+05
(PID.TID 0000.0001) %MON DYU_mean                     =   2.2235494670408E+05
(PID.TID 0000.0001) %MON DYU_sd                       =   4.6566128730774E-10
(PID.TID 0000.0001) %MON RA_max                       =   4.8530874650285E+10
(PID.TID 0000.0001) %MON RA_min                       =   3.7312247106402E+10
(PID.TID 0000.0001) %MON RA_mean                      =   4.3862613292919E+10
(PID.TID 0000.0001) %MON RA_sd                        =   3.4977254540690E+09
(PID.TID 0000.0001) %MON RAW_max                      =   4.8530874650285E+10
(PID.TID 0000.0001) %MON RAW_min                      =   3.7312247106402E+10
(PID.TID 0000.0001) %MON RAW_mean                     =   4.3862613292919E+10
(PID.TID 0000.0001) %MON RAW_sd                       =   3.4977254540690E+09
(PID.TID 0000.0001) %MON RAS_max                      =   4.8688119503989E+10
(PID.TID 0000.0001) %MON RAS_min                      =   3.7872633798691E+10
(PID.TID 0000.0001) %MON RAS_mean                     =   4.4229296078267E+10
(PID.TID 0000.0001) %MON RAS_sd                       =   3.3753854271397E+09
(PID.TID 0000.0001) %MON RAZ_max                      =   4.8688119503989E+10
(PID.TID 0000.0001) %MON RAZ_min                      =   3.7872633798691E+10
(PID.TID 0000.0001) %MON RAZ_mean                     =   4.4229296078267E+10
(PID.TID 0000.0001) %MON RAZ_sd                       =   3.3753854271397E+09
(PID.TID 0000.0001) %MON AngleCS_max                  =   1.0000000000000E+00
(PID.TID 0000.0001) %MON AngleCS_min                  =   1.0000000000000E+00
(PID.TID 0000.0001) %MON AngleCS_mean                 =   1.0000000000000E+00
(PID.TID 0000.0001) %MON AngleCS_sd                   =   0.0000000000000E+00
(PID.TID 0000.0001) %MON AngleSN_max                  =   0.0000000000000E+00
(PID.TID 0000.0001) %MON AngleSN_min                  =   0.0000000000000E+00
(PID.TID 0000.0001) %MON AngleSN_mean                 =   0.0000000000000E+00
(PID.TID 0000.0001) %MON AngleSN_sd                   =   0.0000000000000E+00
(PID.TID 0000.0001)  MDS_READ_FIELD: opening global file: kf_topog
(PID.TID 0000.0001) // =======================================================
(PID.TID 0000.0001) // Field Model R_low (ini_masks_etc) at iteration          1
(PID.TID 0000.0001) // CMIN =         -5.200000000000000E+03
(PID.TID 0000.0001) // CMAX =         -3.600000000000000E+02
(PID.TID 0000.0001) // CINT =          1.792592592592593E+02
(PID.TID 0000.0001) // SYMBOLS (CMIN->CMAX): -abcdefghijklmnopqrstuvwxyz+
(PID.TID 0000.0001) //                  0.0: .
(PID.TID 0000.0001) // RANGE I (Lo:Hi:Step):(  -3:  24:   1)
(PID.TID 0000.0001) // RANGE J (Lo:Hi:Step):(  20:  -3:  -1)
(PID.TID 0000.0001) // RANGE K (Lo:Hi:Step):(   1:   1:   1)
(PID.TID 0000.0001) // =======================================================
(PID.TID 0000.0001) K =   1
(PID.TID 0000.0001) //                I=6       I=8       I=18
(PID.TID 0000.0001) // |--J--|321012345|789012347|901234567|901234
(PID.TID 0000.0001) //     20 .....cc-----cfkhkz--cfkhkz.......cc-
(PID.TID 0000.0001) //     19 .....c-------cccfy---cccfy.......c--
(PID.TID 0000.0001) //     18 .....hcc------ccfx----ccfx.......hcc
(PID.TID 0000.0001) //     17 ....................................
(PID.TID 0000.0001) //     16 ....................................
(PID.TID 0000.0001) //     15 hv+..fhknsqknnff-cqknnff-ckhhv+..fhk
(PID.TID 0000.0001) //     14 fhx..hknnnnkhcc-chnkhcc-chhhfhx..hkn
(PID.TID 0000.0001) //     13 fz...knnkhknf--chkknf--chkfffz...knn
(PID.TID 0000.0001) //     12 q....nkhfffhc--cfffhc--cffhnq....nkh
(PID.TID 0000.0001) //     11 +....khfccccc-ccfkccc-ccfkkv+....khf
(PID.TID 0000.0001) //     10 .....hcc---cc-cfhk-cc-cfhks......hcc
(PID.TID 0000.0001) //      9 .....fc-------cfkq----cfkq.......fc-
(PID.TID 0000.0001) //      8 .....c-------ccfkx---ccfkx.......c--
(PID.TID 0000.0001) //      7 .....c---cfcccfhk+fcccfhk+.......c--
(PID.TID 0000.0001) //      6 .....c---cccffhknvccffhknv.......c--
(PID.TID 0000.0001) //      5 .....c--ccccfkkkkqccfkkkkq.......c--
(PID.TID 0000.0001) //      4 .....cc-----cfkhkz--cfkhkz.......cc-
(PID.TID 0000.0001) //      3 .....c-------cccfy---cccfy.......c--
(PID.TID 0000.0001) //      2 .....hcc------ccfx----ccfx.......hcc
(PID.TID 0000.0001) //      1 ....................................
(PID.TID 0000.0001) //      0 ....................................
(PID.TID 0000.0001) //     -1 hv+..fhknsqknnff-cqknnff-ckhhv+..fhk
(PID.TID 0000.0001) //     -2 fhx..hknnnnkhcc-chnkhcc-chhhfhx..hkn
(PID.TID 0000.0001) //     -3 fz...knnkhknf--chkknf--chkfffz...knn
(PID.TID 0000.0001) // =======================================================
(PID.TID 0000.0001) // END OF FIELD                                          =
(PID.TID 0000.0001) // =======================================================
(PID.TID 0000.0001) 
(PID.TID 0000.0001) // =======================================================
(PID.TID 0000.0001) // Field Model Ro_surf (ini_masks_etc) at iteration          1
(PID.TID 0000.0001) // CMIN =          1.000000000000000E+32
(PID.TID 0000.0001) // CMAX =         -1.000000000000000E+32
(PID.TID 0000.0001) // CINT =          0.000000000000000E+00
(PID.TID 0000.0001) // SYMBOLS (CMIN->CMAX): -abcdefghijklmnopqrstuvwxyz+
(PID.TID 0000.0001) //                  0.0: .
(PID.TID 0000.0001) // RANGE I (Lo:Hi:Step):(  -3:  24:   1)
(PID.TID 0000.0001) // RANGE J (Lo:Hi:Step):(  20:  -3:  -1)
(PID.TID 0000.0001) // RANGE K (Lo:Hi:Step):(   1:   1:   1)
(PID.TID 0000.0001) // =======================================================
(PID.TID 0000.0001) // =======================================================
(PID.TID 0000.0001) // END OF FIELD                                          =
(PID.TID 0000.0001) // =======================================================
(PID.TID 0000.0001) 
(PID.TID 0000.0001) // =======================================================
(PID.TID 0000.0001) // Field hFacC at iteration          1
(PID.TID 0000.0001) // CMIN =          1.000000000000000E+00
(PID.TID 0000.0001) // CMAX =          1.000000000000000E+00
(PID.TID 0000.0001) // CINT =          0.000000000000000E+00
(PID.TID 0000.0001) // SYMBOLS (CMIN->CMAX): -abcdefghijklmnopqrstuvwxyz+
(PID.TID 0000.0001) //                  0.0: .
(PID.TID 0000.0001) // RANGE I (Lo:Hi:Step):(  -3:  24:   1)
(PID.TID 0000.0001) // RANGE J (Lo:Hi:Step):(  20:  -3:  -1)
(PID.TID 0000.0001) // RANGE K (Lo:Hi:Step):(   1:   1:   1)
(PID.TID 0000.0001) // =======================================================
(PID.TID 0000.0001) // =======================================================
(PID.TID 0000.0001) // END OF FIELD                                          =
(PID.TID 0000.0001) // =======================================================
(PID.TID 0000.0001) 
(PID.TID 0000.0001) // =======================================================
(PID.TID 0000.0001) // Field hFacW at iteration          1
(PID.TID 0000.0001) // CMIN =          1.000000000000000E+00
(PID.TID 0000.0001) // CMAX =          1.000000000000000E+00
(PID.TID 0000.0001) // CINT =          0.000000000000000E+00
(PID.TID 0000.0001) // SYMBOLS (CMIN->CMAX): -abcdefghijklmnopqrstuvwxyz+
(PID.TID 0000.0001) //                  0.0: .
(PID.TID 0000.0001) // RANGE I (Lo:Hi:Step):(  -3:  24:   1)
(PID.TID 0000.0001) // RANGE J (Lo:Hi:Step):(  20:  -3:  -1)
(PID.TID 0000.0001) // RANGE K (Lo:Hi:Step):(   1:   1:   1)
(PID.TID 0000.0001) // =======================================================
(PID.TID 0000.0001) // =======================================================
(PID.TID 0000.0001) // END OF FIELD                                          =
(PID.TID 0000.0001) // =======================================================
(PID.TID 0000.0001) 
(PID.TID 0000.0001) // =======================================================
(PID.TID 0000.0001) // Field hFacS at iteration          1
(PID.TID 0000.0001) // CMIN =          1.000000000000000E+00
(PID.TID 0000.0001) // CMAX =          1.000000000000000E+00
(PID.TID 0000.0001) // CINT =          0.000000000000000E+00
(PID.TID 0000.0001) // SYMBOLS (CMIN->CMAX): -abcdefghijklmnopqrstuvwxyz+
(PID.TID 0000.0001) //                  0.0: .
(PID.TID 0000.0001) // RANGE I (Lo:Hi:Step):(  -3:  24:   1)
(PID.TID 0000.0001) // RANGE J (Lo:Hi:Step):(  20:  -3:  -1)
(PID.TID 0000.0001) // RANGE K (Lo:Hi:Step):(   1:   1:   1)
(PID.TID 0000.0001) // =======================================================
(PID.TID 0000.0001) // =======================================================
(PID.TID 0000.0001) // END OF FIELD                                          =
(PID.TID 0000.0001) // =======================================================
(PID.TID 0000.0001) 
(PID.TID 0000.0001) 
(PID.TID 0000.0001) // ===================================
(PID.TID 0000.0001) // GAD parameters :
(PID.TID 0000.0001) // ===================================
(PID.TID 0000.0001) tempAdvScheme =   /* Temp. Horiz.Advection scheme selector */
(PID.TID 0000.0001)                       2
(PID.TID 0000.0001)     ;
(PID.TID 0000.0001) tempVertAdvScheme =   /* Temp. Vert. Advection scheme selector */
(PID.TID 0000.0001)                       2
(PID.TID 0000.0001)     ;
(PID.TID 0000.0001) tempMultiDimAdvec =   /* use Muti-Dim Advec method for Temp */
(PID.TID 0000.0001)                   F
(PID.TID 0000.0001)     ;
(PID.TID 0000.0001) tempSOM_Advection = /* use 2nd Order Moment Advection for Temp */
(PID.TID 0000.0001)                   F
(PID.TID 0000.0001)     ;
(PID.TID 0000.0001) AdamsBashforthGt = /* apply Adams-Bashforth extrapolation on Gt */
(PID.TID 0000.0001)                   T
(PID.TID 0000.0001)     ;
(PID.TID 0000.0001) AdamsBashforth_T = /* apply Adams-Bashforth extrapolation on Temp */
(PID.TID 0000.0001)                   F
(PID.TID 0000.0001)     ;
(PID.TID 0000.0001) saltAdvScheme =   /* Salt. Horiz.advection scheme selector */
(PID.TID 0000.0001)                       2
(PID.TID 0000.0001)     ;
(PID.TID 0000.0001) saltVertAdvScheme =   /* Salt. Vert. Advection scheme selector */
(PID.TID 0000.0001)                       2
(PID.TID 0000.0001)     ;
(PID.TID 0000.0001) saltMultiDimAdvec =   /* use Muti-Dim Advec method for Salt */
(PID.TID 0000.0001)                   F
(PID.TID 0000.0001)     ;
(PID.TID 0000.0001) saltSOM_Advection = /* use 2nd Order Moment Advection for Salt */
(PID.TID 0000.0001)                   F
(PID.TID 0000.0001)     ;
(PID.TID 0000.0001) AdamsBashforthGs = /* apply Adams-Bashforth extrapolation on Gs */
(PID.TID 0000.0001)                   T
(PID.TID 0000.0001)     ;
(PID.TID 0000.0001) AdamsBashforth_S = /* apply Adams-Bashforth extrapolation on Salt */
(PID.TID 0000.0001)                   F
(PID.TID 0000.0001)     ;
(PID.TID 0000.0001) // ===================================
(PID.TID 0000.0001) ------------------------------------------------------------
(PID.TID 0000.0001) DIAGNOSTICS_SET_LEVELS: done
(PID.TID 0000.0001)  Total Nb of available Diagnostics: ndiagt= 175
(PID.TID 0000.0001)  write list of available Diagnostics to file: available_diagnostics.log
(PID.TID 0000.0001) SETDIAG: Allocate 23 x  1 Levels for Diagnostic # 169 KPPviscA
(PID.TID 0000.0001) SETDIAG: Allocate 23 x  1 Levels for Diagnostic # 170 KPPdiffS
(PID.TID 0000.0001) SETDIAG: Allocate 23 x  1 Levels for Diagnostic # 171 KPPdiffT
(PID.TID 0000.0001) SETDIAG: Allocate 23 x  1 Levels for Diagnostic # 172 KPPghat
(PID.TID 0000.0001) SETDIAG: Allocate  1 x  1 Levels for Diagnostic # 173 KPPhbl
(PID.TID 0000.0001) SETDIAG: Allocate  1 x  1 Levels for Diagnostic # 175 KPPfrac
(PID.TID 0000.0001) SETDIAG: Allocate  1 x  1 Levels for Diagnostic # 174 KPPmld
(PID.TID 0000.0001)   space allocated for all diagnostics:    95 levels
(PID.TID 0000.0001) DIAGNOSTICS_SET_POINTERS: Set levels for Outp.Stream: KPPviscA
(PID.TID 0000.0001)  Levels:       1.   2.   3.   4.   5.   6.   7.   8.   9.  10.  11.  12.  13.  14.  15.  16.  17.  18.  19.  20.
(PID.TID 0000.0001)  Levels:      21.  22.  23.
(PID.TID 0000.0001) DIAGNOSTICS_SET_POINTERS: Set levels for Outp.Stream: KPPdiffS
(PID.TID 0000.0001)  Levels:       1.   2.   3.   4.   5.   6.   7.   8.   9.  10.  11.  12.  13.  14.  15.  16.  17.  18.  19.  20.
(PID.TID 0000.0001)  Levels:      21.  22.  23.
(PID.TID 0000.0001) DIAGNOSTICS_SET_POINTERS: Set levels for Outp.Stream: KPPdiffT
(PID.TID 0000.0001)  Levels:       1.   2.   3.   4.   5.   6.   7.   8.   9.  10.  11.  12.  13.  14.  15.  16.  17.  18.  19.  20.
(PID.TID 0000.0001)  Levels:      21.  22.  23.
(PID.TID 0000.0001) DIAGNOSTICS_SET_POINTERS: Set levels for Outp.Stream: KPP_ghat
(PID.TID 0000.0001)  Levels:       1.   2.   3.   4.   5.   6.   7.   8.   9.  10.  11.  12.  13.  14.  15.  16.  17.  18.  19.  20.
(PID.TID 0000.0001)  Levels:      21.  22.  23.
(PID.TID 0000.0001) DIAGNOSTICS_SET_POINTERS: Set levels for Outp.Stream: KPP_hbl
(PID.TID 0000.0001)  Levels:       1.
(PID.TID 0000.0001) DIAGNOSTICS_SET_POINTERS: Set levels for Outp.Stream: KPPfrac
(PID.TID 0000.0001)  Levels:       1.
(PID.TID 0000.0001) DIAGNOSTICS_SET_POINTERS: Set levels for Outp.Stream: KPPmld
(PID.TID 0000.0001)  Levels:       1.
(PID.TID 0000.0001) DIAGNOSTICS_SET_POINTERS: done
(PID.TID 0000.0001) ------------------------------------------------------------
(PID.TID 0000.0001) DIAGSTATS_SET_REGIONS: define no region
(PID.TID 0000.0001) ------------------------------------------------------------
(PID.TID 0000.0001)   space allocated for all stats-diags:     0 levels
(PID.TID 0000.0001) DIAGSTATS_SET_POINTERS: done
(PID.TID 0000.0001) ------------------------------------------------------------
(PID.TID 0000.0001) GAD_CHECK: #define ALLOW_GENERIC_ADVDIFF
(PID.TID 0000.0001) KPP_CHECK: #define ALLOW_KPP
(PID.TID 0000.0001) %MON fCori_max                    =   9.5419917861011E-05
(PID.TID 0000.0001) %MON fCori_min                    =   2.7752043431195E-05
(PID.TID 0000.0001) %MON fCori_mean                   =   6.2936249243168E-05
(PID.TID 0000.0001) %MON fCori_sd                     =   2.0885809702547E-05
(PID.TID 0000.0001) %MON fCoriG_max                   =   9.3489668167119E-05
(PID.TID 0000.0001) %MON fCoriG_min                   =   2.5256103669800E-05
(PID.TID 0000.0001) %MON fCoriG_mean                  =   6.0674632558389E-05
(PID.TID 0000.0001) %MON fCoriG_sd                    =   2.1059305790472E-05
(PID.TID 0000.0001) %MON fCoriCos_max                 =   1.4277188648533E-04
(PID.TID 0000.0001) %MON fCoriCos_min                 =   1.0976805892693E-04
(PID.TID 0000.0001) %MON fCoriCos_mean                =   1.2903843359786E-04
(PID.TID 0000.0001) %MON fCoriCos_sd                  =   1.0289879691716E-05
(PID.TID 0000.0001) INI_CG2D: CG2D normalisation factor =  1.5752923928634454E-04
(PID.TID 0000.0001) 
(PID.TID 0000.0001) CONFIG_CHECK: OK
(PID.TID 0000.0001) // =======================================================
(PID.TID 0000.0001) // Model configuration
(PID.TID 0000.0001) // =======================================================
(PID.TID 0000.0001) //
(PID.TID 0000.0001) // "Physical" paramters ( PARM01 in namelist )
(PID.TID 0000.0001) //
(PID.TID 0000.0001) buoyancyRelation = /* Type of relation to get Buoyancy */
(PID.TID 0000.0001)               'OCEANIC'
(PID.TID 0000.0001)     ;
(PID.TID 0000.0001) fluidIsAir  =  /* fluid major constituent is Air */
(PID.TID 0000.0001)                   F
(PID.TID 0000.0001)     ;
(PID.TID 0000.0001) fluidIsWater=  /* fluid major constituent is Water */
(PID.TID 0000.0001)                   T
(PID.TID 0000.0001)     ;
(PID.TID 0000.0001) usingPCoords =  /* use p (or p*) vertical coordinate */
(PID.TID 0000.0001)                   F
(PID.TID 0000.0001)     ;
(PID.TID 0000.0001) usingZCoords =  /* use z (or z*) vertical coordinate */
(PID.TID 0000.0001)                   T
(PID.TID 0000.0001)     ;
(PID.TID 0000.0001) tRef =   /* Reference temperature profile ( oC or K ) */
(PID.TID 0000.0001)    23 @  2.000000000000000E+01              /* K =  1: 23 */
(PID.TID 0000.0001)     ;
(PID.TID 0000.0001) sRef =   /* Reference salinity profile ( psu ) */
(PID.TID 0000.0001)    23 @  3.000000000000000E+01              /* K =  1: 23 */
(PID.TID 0000.0001)     ;
(PID.TID 0000.0001) viscAh =   /* Lateral eddy viscosity ( m^2/s ) */
(PID.TID 0000.0001)                 5.000000000000000E+04
(PID.TID 0000.0001)     ;
(PID.TID 0000.0001) viscAhMax =   /* Maximum lateral eddy viscosity ( m^2/s ) */
(PID.TID 0000.0001)                 1.000000000000000E+21
(PID.TID 0000.0001)     ;
(PID.TID 0000.0001) viscAhGrid =   /* Grid dependent lateral eddy viscosity ( non-dim. ) */
(PID.TID 0000.0001)                 0.000000000000000E+00
(PID.TID 0000.0001)     ;
(PID.TID 0000.0001) useFullLeith =   /* Use Full Form of Leith Viscosity on/off flag*/
(PID.TID 0000.0001)                   F
(PID.TID 0000.0001)     ;
(PID.TID 0000.0001) useStrainTensionVisc =   /* Use StrainTension Form of Viscous Operator on/off flag*/
(PID.TID 0000.0001)                   F
(PID.TID 0000.0001)     ;
(PID.TID 0000.0001) useAreaViscLength =   /* Use area for visc length instead of geom. mean*/
(PID.TID 0000.0001)                   F
(PID.TID 0000.0001)     ;
(PID.TID 0000.0001) viscC2leith = /* Leith harmonic visc. factor (on grad(vort),non-dim.) */
(PID.TID 0000.0001)                 0.000000000000000E+00
(PID.TID 0000.0001)     ;
(PID.TID 0000.0001) viscC2leithD = /* Leith harmonic viscosity factor (on grad(div),non-dim.) */
(PID.TID 0000.0001)                 0.000000000000000E+00
(PID.TID 0000.0001)     ;
(PID.TID 0000.0001) viscC2smag =   /* Smagorinsky harmonic viscosity factor (non-dim.) */
(PID.TID 0000.0001)                 0.000000000000000E+00
(PID.TID 0000.0001)     ;
(PID.TID 0000.0001) viscA4 =   /* Lateral biharmonic viscosity ( m^4/s ) */
(PID.TID 0000.0001)                 5.000000000000000E+12
(PID.TID 0000.0001)     ;
(PID.TID 0000.0001) viscA4Max =   /* Maximum biharmonic viscosity ( m^2/s ) */
(PID.TID 0000.0001)                 1.000000000000000E+21
(PID.TID 0000.0001)     ;
(PID.TID 0000.0001) viscA4Grid =   /* Grid dependent biharmonic viscosity ( non-dim. ) */
(PID.TID 0000.0001)                 0.000000000000000E+00
(PID.TID 0000.0001)     ;
(PID.TID 0000.0001) viscC4leith = /* Leith biharm viscosity factor (on grad(vort), non-dim.) */
(PID.TID 0000.0001)                 0.000000000000000E+00
(PID.TID 0000.0001)     ;
(PID.TID 0000.0001) viscC4leithD = /* Leith biharm viscosity factor (on grad(div), non-dim.) */
(PID.TID 0000.0001)                 0.000000000000000E+00
(PID.TID 0000.0001)     ;
(PID.TID 0000.0001) viscC4Smag = /* Smagorinsky biharm viscosity factor (non-dim) */
(PID.TID 0000.0001)                 0.000000000000000E+00
(PID.TID 0000.0001)     ;
(PID.TID 0000.0001) no_slip_sides =  /* Viscous BCs: No-slip sides */
(PID.TID 0000.0001)                   F
(PID.TID 0000.0001)     ;
(PID.TID 0000.0001) sideDragFactor = /* side-drag scaling factor (non-dim) */
(PID.TID 0000.0001)                 2.000000000000000E+00
(PID.TID 0000.0001)     ;
(PID.TID 0000.0001) viscAr =   /* Vertical eddy viscosity ( units of r^2/s ) */
(PID.TID 0000.0001)                 1.000000000000000E-03
(PID.TID 0000.0001)     ;
(PID.TID 0000.0001) no_slip_bottom =  /* Viscous BCs: No-slip bottom */
(PID.TID 0000.0001)                   T
(PID.TID 0000.0001)     ;
(PID.TID 0000.0001) bottomDragLinear = /* linear bottom-drag coefficient ( 1/s ) */
(PID.TID 0000.0001)                 0.000000000000000E+00
(PID.TID 0000.0001)     ;
(PID.TID 0000.0001) bottomDragQuadratic = /* quadratic bottom-drag coeff. ( 1/m ) */
(PID.TID 0000.0001)                 0.000000000000000E+00
(PID.TID 0000.0001)     ;
(PID.TID 0000.0001) diffKhT =   /* Laplacian diffusion of heat laterally ( m^2/s ) */
(PID.TID 0000.0001)                 1.000000000000000E+03
(PID.TID 0000.0001)     ;
(PID.TID 0000.0001) diffK4T =   /* Bihaarmonic diffusion of heat laterally ( m^4/s ) */
(PID.TID 0000.0001)                 0.000000000000000E+00
(PID.TID 0000.0001)     ;
(PID.TID 0000.0001) diffKhS =   /* Laplacian diffusion of salt laterally ( m^2/s ) */
(PID.TID 0000.0001)                 1.000000000000000E+03
(PID.TID 0000.0001)     ;
(PID.TID 0000.0001) diffK4S =   /* Bihaarmonic diffusion of salt laterally ( m^4/s ) */
(PID.TID 0000.0001)                 0.000000000000000E+00
(PID.TID 0000.0001)     ;
(PID.TID 0000.0001) diffKrNrT = /* vertical profile of vertical diffusion of Temp ( m^2/s )*/
(PID.TID 0000.0001)    23 @  1.000000000000000E-05              /* K =  1: 23 */
(PID.TID 0000.0001)     ;
(PID.TID 0000.0001) diffKrNrS = /* vertical profile of vertical diffusion of Salt ( m^2/s )*/
(PID.TID 0000.0001)    23 @  1.000000000000000E-05              /* K =  1: 23 */
(PID.TID 0000.0001)     ;
(PID.TID 0000.0001) diffKrBL79surf =   /* Surface diffusion for Bryan and Lewis 1979 ( m^2/s ) */
(PID.TID 0000.0001)                 0.000000000000000E+00
(PID.TID 0000.0001)     ;
(PID.TID 0000.0001) diffKrBL79deep =   /* Deep diffusion for Bryan and Lewis 1979 ( m^2/s ) */
(PID.TID 0000.0001)                 0.000000000000000E+00
(PID.TID 0000.0001)     ;
(PID.TID 0000.0001) diffKrBL79scl =   /* Depth scale for Bryan and Lewis 1979 ( m ) */
(PID.TID 0000.0001)                 2.000000000000000E+02
(PID.TID 0000.0001)     ;
(PID.TID 0000.0001) diffKrBL79Ho =   /* Turning depth for Bryan and Lewis 1979 ( m ) */
(PID.TID 0000.0001)                -2.000000000000000E+03
(PID.TID 0000.0001)     ;
(PID.TID 0000.0001) ivdc_kappa = /* Implicit Vertical Diffusivity for Convection ( m^2/s ) */
(PID.TID 0000.0001)                 0.000000000000000E+00
(PID.TID 0000.0001)     ;
(PID.TID 0000.0001) hMixCriteria=  /* Criteria for mixed-layer diagnostic */
(PID.TID 0000.0001)                -8.000000000000000E-01
(PID.TID 0000.0001)     ;
(PID.TID 0000.0001) eosType =  /* Type of Equation of State */
(PID.TID 0000.0001)               'POLY3 '
(PID.TID 0000.0001)     ;
(PID.TID 0000.0001) tAlpha =   /* Linear EOS thermal expansion coefficient ( 1/oC ) */
(PID.TID 0000.0001)                 2.000000000000000E-04
(PID.TID 0000.0001)     ;
(PID.TID 0000.0001) sBeta =   /* Linear EOS haline contraction coefficient ( 1/psu ) */
(PID.TID 0000.0001)                 7.400000000000000E-04
(PID.TID 0000.0001)     ;
(PID.TID 0000.0001)   1  13.499  32.600  24.480  -0.201   0.771  -0.005  -0.002   0.000   0.000   0.000   0.000   0.000
(PID.TID 0000.0001)   2  13.498  32.600  24.525  -0.202   0.771  -0.005  -0.002   0.000   0.000   0.000   0.000   0.000
(PID.TID 0000.0001)   3  13.496  32.600  24.581  -0.202   0.771  -0.005  -0.002   0.000   0.000   0.000   0.000   0.000
(PID.TID 0000.0001)   4  13.494  32.600  24.660  -0.202   0.771  -0.005  -0.002   0.000   0.000   0.000   0.000   0.000
(PID.TID 0000.0001)   5  13.491  32.600  24.750  -0.203   0.771  -0.005  -0.002   0.000   0.000   0.000   0.000   0.000
(PID.TID 0000.0001)   6  13.488  32.600  24.851  -0.203   0.770  -0.005  -0.002   0.000   0.000   0.000   0.000   0.000
(PID.TID 0000.0001)   7  13.484  32.600  24.985  -0.204   0.770  -0.005  -0.002   0.000   0.000   0.000   0.000   0.000
(PID.TID 0000.0001)   8  13.478  32.600  25.176  -0.204   0.770  -0.005  -0.002   0.000   0.000   0.000   0.000   0.000
(PID.TID 0000.0001)   9  13.469  32.600  25.456  -0.205   0.769  -0.005  -0.002   0.000   0.000   0.000   0.000   0.000
(PID.TID 0000.0001)  10   8.467  35.150  28.748  -0.163   0.781  -0.005  -0.002   0.001   0.000   0.000   0.000   0.000
(PID.TID 0000.0001)  11   8.454  35.150  29.315  -0.166   0.780  -0.005  -0.002   0.001   0.000   0.000   0.000   0.000
(PID.TID 0000.0001)  12   5.946  34.900  30.300  -0.143   0.785  -0.006  -0.002   0.001   0.000   0.000   0.000   0.000
(PID.TID 0000.0001)  13   4.433  34.900  31.591  -0.132   0.786  -0.006  -0.003   0.000   0.000   0.000   0.000   0.000
(PID.TID 0000.0001)  14   3.909  34.750  32.966  -0.134   0.785  -0.006  -0.003   0.000   0.000   0.000   0.000   0.000
(PID.TID 0000.0001)  15   1.899  34.800  35.002  -0.121   0.787  -0.006  -0.003   0.000   0.000   0.000   0.000   0.000
(PID.TID 0000.0001)  16   1.372  34.750  36.991  -0.127   0.785  -0.006  -0.003  -0.001   0.000   0.000   0.000   0.000
(PID.TID 0000.0001)  17   1.332  34.800  39.171  -0.140   0.782  -0.006  -0.003  -0.001   0.000   0.000   0.000   0.000
(PID.TID 0000.0001)  18   0.797  34.800  41.472  -0.147   0.779  -0.006  -0.003  -0.001   0.000   0.000   0.000   0.000
(PID.TID 0000.0001)  19   0.749  34.800  43.682  -0.160   0.775  -0.005  -0.002  -0.002   0.000   0.000   0.000   0.000
(PID.TID 0000.0001)  20   0.214  34.750  45.912  -0.168   0.772  -0.005  -0.002  -0.002   0.000   0.000   0.000   0.000
(PID.TID 0000.0001)  21   0.160  34.750  48.080  -0.181   0.768  -0.005  -0.002  -0.003   0.000   0.000   0.000   0.000
(PID.TID 0000.0001)  22   0.584  34.750  50.131  -0.197   0.763  -0.005  -0.002  -0.001   0.000   0.000   0.000   0.000
(PID.TID 0000.0001)  23   0.522  34.750  52.248  -0.209   0.760  -0.005  -0.002  -0.002   0.000   0.000   0.000   0.000
(PID.TID 0000.0001) rhonil =   /* Reference density ( kg/m^3 ) */
(PID.TID 0000.0001)                 9.998000000000000E+02
(PID.TID 0000.0001)     ;
(PID.TID 0000.0001) rhoConst =   /* Reference density ( kg/m^3 ) */
(PID.TID 0000.0001)                 9.998000000000000E+02
(PID.TID 0000.0001)     ;
(PID.TID 0000.0001) rhoFacC = /* normalized Reference density @ cell-Center (-) */
(PID.TID 0000.0001)    23 @  1.000000000000000E+00              /* K =  1: 23 */
(PID.TID 0000.0001)     ;
(PID.TID 0000.0001) rhoFacF = /* normalized Reference density @ W-Interface (-) */
(PID.TID 0000.0001)    24 @  1.000000000000000E+00              /* K =  1: 24 */
(PID.TID 0000.0001)     ;
(PID.TID 0000.0001) rhoConstFresh =   /* Reference density ( kg/m^3 ) */
(PID.TID 0000.0001)                 9.998000000000000E+02
(PID.TID 0000.0001)     ;
(PID.TID 0000.0001) gravity =   /* Gravitational acceleration ( m/s^2 ) */
(PID.TID 0000.0001)                 9.810000000000000E+00
(PID.TID 0000.0001)     ;
(PID.TID 0000.0001) gBaro =   /* Barotropic gravity ( m/s^2 ) */
(PID.TID 0000.0001)                 9.810000000000000E+00
(PID.TID 0000.0001)     ;
(PID.TID 0000.0001) rotationPeriod =   /* Rotation Period ( s ) */
(PID.TID 0000.0001)                 8.640000000000000E+04
(PID.TID 0000.0001)     ;
(PID.TID 0000.0001) omega =   /* Angular velocity ( rad/s ) */
(PID.TID 0000.0001)                 7.272205216643040E-05
(PID.TID 0000.0001)     ;
(PID.TID 0000.0001) f0 =   /* Reference coriolis parameter ( 1/s ) */
(PID.TID 0000.0001)                 1.000000000000000E-04
(PID.TID 0000.0001)     ;
(PID.TID 0000.0001) beta =   /* Beta ( 1/(m.s) ) */
(PID.TID 0000.0001)                 9.999999999999999E-12
(PID.TID 0000.0001)     ;
(PID.TID 0000.0001) freeSurfFac =   /* Implicit free surface factor */
(PID.TID 0000.0001)                 1.000000000000000E+00
(PID.TID 0000.0001)     ;
(PID.TID 0000.0001) implicitFreeSurface =   /* Implicit free surface on/off flag */
(PID.TID 0000.0001)                   T
(PID.TID 0000.0001)     ;
(PID.TID 0000.0001) rigidLid =   /* Rigid lid on/off flag */
(PID.TID 0000.0001)                   F
(PID.TID 0000.0001)     ;
(PID.TID 0000.0001) implicSurfPress =   /* Surface Pressure implicit factor (0-1)*/
(PID.TID 0000.0001)                 1.000000000000000E+00
(PID.TID 0000.0001)     ;
(PID.TID 0000.0001) implicDiv2Dflow =   /* Barot. Flow Div. implicit factor (0-1)*/
(PID.TID 0000.0001)                 1.000000000000000E+00
(PID.TID 0000.0001)     ;
(PID.TID 0000.0001) exactConserv =   /* Exact Volume Conservation on/off flag*/
(PID.TID 0000.0001)                   F
(PID.TID 0000.0001)     ;
(PID.TID 0000.0001) linFSConserveTr =   /* Tracer correction for Lin Free Surface on/off flag*/
(PID.TID 0000.0001)                   F
(PID.TID 0000.0001)     ;
(PID.TID 0000.0001) uniformLin_PhiSurf =   /* use uniform Bo_surf on/off flag*/
(PID.TID 0000.0001)                   T
(PID.TID 0000.0001)     ;
(PID.TID 0000.0001) nonlinFreeSurf =   /* Non-linear Free Surf. options (-1,0,1,2,3)*/
(PID.TID 0000.0001)                       0
(PID.TID 0000.0001)     ;
(PID.TID 0000.0001)      -1,0= Off ; 1,2,3= On, 2=+rescale gU,gV, 3=+update cg2d solv.
(PID.TID 0000.0001) hFacInf =   /* lower threshold for hFac (nonlinFreeSurf only)*/
(PID.TID 0000.0001)                 2.000000000000000E-01
(PID.TID 0000.0001)     ;
(PID.TID 0000.0001) hFacSup =   /* upper threshold for hFac (nonlinFreeSurf only)*/
(PID.TID 0000.0001)                 2.000000000000000E+00
(PID.TID 0000.0001)     ;
(PID.TID 0000.0001) select_rStar =   /* r* Coordinate options (not yet implemented)*/
(PID.TID 0000.0001)                       0
(PID.TID 0000.0001)     ;
(PID.TID 0000.0001) useRealFreshWaterFlux =   /* Real Fresh Water Flux on/off flag*/
(PID.TID 0000.0001)                   F
(PID.TID 0000.0001)     ;
(PID.TID 0000.0001) convertFW2Salt = /* convert F.W. Flux to Salt Flux (-1=use local S)(ppt)*/
(PID.TID 0000.0001)                 3.500000000000000E+01
(PID.TID 0000.0001)     ;
(PID.TID 0000.0001) use3Dsolver = /* use 3-D pressure solver on/off flag */
(PID.TID 0000.0001)                   F
(PID.TID 0000.0001)     ;
(PID.TID 0000.0001) nonHydrostatic =  /* Non-Hydrostatic on/off flag */
(PID.TID 0000.0001)                   F
(PID.TID 0000.0001)     ;
(PID.TID 0000.0001) nh_Am2 = /* Non-Hydrostatic terms scaling factor */
(PID.TID 0000.0001)                 1.000000000000000E+00
(PID.TID 0000.0001)     ;
(PID.TID 0000.0001) quasiHydrostatic = /* Quasi-Hydrostatic on/off flag */
(PID.TID 0000.0001)                   F
(PID.TID 0000.0001)     ;
(PID.TID 0000.0001) momStepping =  /* Momentum equation on/off flag */
(PID.TID 0000.0001)                   T
(PID.TID 0000.0001)     ;
(PID.TID 0000.0001) vectorInvariantMomentum= /* Vector-Invariant Momentum on/off */
(PID.TID 0000.0001)                   F
(PID.TID 0000.0001)     ;
(PID.TID 0000.0001) momAdvection =  /* Momentum advection on/off flag */
(PID.TID 0000.0001)                   T
(PID.TID 0000.0001)     ;
(PID.TID 0000.0001) momViscosity =  /* Momentum viscosity on/off flag */
(PID.TID 0000.0001)                   T
(PID.TID 0000.0001)     ;
(PID.TID 0000.0001) momImplVertAdv =/* Momentum implicit vert. advection on/off*/
(PID.TID 0000.0001)                   F
(PID.TID 0000.0001)     ;
(PID.TID 0000.0001) implicitViscosity = /* Implicit viscosity on/off flag */
(PID.TID 0000.0001)                   T
(PID.TID 0000.0001)     ;
(PID.TID 0000.0001) metricTerms =  /* metric-Terms on/off flag */
(PID.TID 0000.0001)                   T
(PID.TID 0000.0001)     ;
(PID.TID 0000.0001) useNHMTerms = /* Non-Hydrostatic Metric-Terms on/off */
(PID.TID 0000.0001)                   T
(PID.TID 0000.0001)     ;
(PID.TID 0000.0001) useConstantF =  /* use Constant f0 Coriolis flag */
(PID.TID 0000.0001)                   F
(PID.TID 0000.0001)     ;
(PID.TID 0000.0001) useBetaPlaneF = /* use Beta-Plane Coriolis flag */
(PID.TID 0000.0001)                   F
(PID.TID 0000.0001)     ;
(PID.TID 0000.0001) useSphereF  =   /* use Spherical Coriolis flag */
(PID.TID 0000.0001)                   T
(PID.TID 0000.0001)     ;
(PID.TID 0000.0001) use3dCoriolis = /* 3-D Coriolis on/off flag */
(PID.TID 0000.0001)                   F
(PID.TID 0000.0001)     ;
(PID.TID 0000.0001) useCoriolis =  /* Coriolis on/off flag */
(PID.TID 0000.0001)                   T
(PID.TID 0000.0001)     ;
(PID.TID 0000.0001) useCDscheme =  /* CD scheme on/off flag */
(PID.TID 0000.0001)                   T
(PID.TID 0000.0001)     ;
(PID.TID 0000.0001) useJamartWetPoints= /* Coriolis WetPoints method flag */
(PID.TID 0000.0001)                   F
(PID.TID 0000.0001)     ;
(PID.TID 0000.0001) useJamartMomAdv= /* V.I. Non-linear terms Jamart flag */
(PID.TID 0000.0001)                   F
(PID.TID 0000.0001)     ;
(PID.TID 0000.0001) SadournyCoriolis= /* Sadourny Coriolis discr. flag */
(PID.TID 0000.0001)                   F
(PID.TID 0000.0001)     ;
(PID.TID 0000.0001) upwindVorticity= /* Upwind bias vorticity flag */
(PID.TID 0000.0001)                   F
(PID.TID 0000.0001)     ;
(PID.TID 0000.0001) useAbsVorticity= /* Work with f+zeta in Coriolis */
(PID.TID 0000.0001)                   F
(PID.TID 0000.0001)     ;
(PID.TID 0000.0001) highOrderVorticity= /* High order interp. of vort. flag */
(PID.TID 0000.0001)                   F
(PID.TID 0000.0001)     ;
(PID.TID 0000.0001) upwindShear= /* Upwind vertical Shear advection flag */
(PID.TID 0000.0001)                   F
(PID.TID 0000.0001)     ;
(PID.TID 0000.0001) selectKEscheme= /* Kinetic Energy scheme selector */
(PID.TID 0000.0001)                       0
(PID.TID 0000.0001)     ;
(PID.TID 0000.0001) momForcing =  /* Momentum forcing on/off flag */
(PID.TID 0000.0001)                   T
(PID.TID 0000.0001)     ;
(PID.TID 0000.0001) momPressureForcing =  /* Momentum pressure term on/off flag */
(PID.TID 0000.0001)                   T
(PID.TID 0000.0001)     ;
(PID.TID 0000.0001) implicitIntGravWave= /* Implicit Internal Gravity Wave flag */
(PID.TID 0000.0001)                   F
(PID.TID 0000.0001)     ;
(PID.TID 0000.0001) staggerTimeStep =   /* Stagger time stepping on/off flag */
(PID.TID 0000.0001)                   F
(PID.TID 0000.0001)     ;
(PID.TID 0000.0001) multiDimAdvection =   /* enable/disable Multi-Dim Advection */
(PID.TID 0000.0001)                   T
(PID.TID 0000.0001)     ;
(PID.TID 0000.0001) useMultiDimAdvec =   /* Multi-Dim Advection is/is-not used */
(PID.TID 0000.0001)                   F
(PID.TID 0000.0001)     ;
(PID.TID 0000.0001) implicitDiffusion =/* Implicit Diffusion on/off flag */
(PID.TID 0000.0001)                   T
(PID.TID 0000.0001)     ;
(PID.TID 0000.0001) tempStepping =  /* Temperature equation on/off flag */
(PID.TID 0000.0001)                   T
(PID.TID 0000.0001)     ;
(PID.TID 0000.0001) tempAdvection=  /* Temperature advection on/off flag */
(PID.TID 0000.0001)                   T
(PID.TID 0000.0001)     ;
(PID.TID 0000.0001) tempImplVertAdv =/* Temp. implicit vert. advection on/off */
(PID.TID 0000.0001)                   F
(PID.TID 0000.0001)     ;
(PID.TID 0000.0001) tempForcing  =  /* Temperature forcing on/off flag */
(PID.TID 0000.0001)                   T
(PID.TID 0000.0001)     ;
(PID.TID 0000.0001) saltStepping =  /* Salinity equation on/off flag */
(PID.TID 0000.0001)                   T
(PID.TID 0000.0001)     ;
(PID.TID 0000.0001) saltAdvection=  /* Salinity advection on/off flag */
(PID.TID 0000.0001)                   T
(PID.TID 0000.0001)     ;
(PID.TID 0000.0001) saltImplVertAdv =/* Sali. implicit vert. advection on/off */
(PID.TID 0000.0001)                   F
(PID.TID 0000.0001)     ;
(PID.TID 0000.0001) saltForcing  =  /* Salinity forcing on/off flag */
(PID.TID 0000.0001)                   T
(PID.TID 0000.0001)     ;
(PID.TID 0000.0001)  readBinaryPrec = /* Precision used for reading binary files */
(PID.TID 0000.0001)                      32
(PID.TID 0000.0001)     ;
(PID.TID 0000.0001) writeBinaryPrec = /* Precision used for writing binary files */
(PID.TID 0000.0001)                      32
(PID.TID 0000.0001)     ;
(PID.TID 0000.0001)  globalFiles = /* write "global" (=not per tile) files */
(PID.TID 0000.0001)                   F
(PID.TID 0000.0001)     ;
(PID.TID 0000.0001)  useSingleCpuIO = /* only master MPI process does I/O */
(PID.TID 0000.0001)                   F
(PID.TID 0000.0001)     ;
(PID.TID 0000.0001)  debugMode  =  /* Debug Mode on/off flag */
(PID.TID 0000.0001)                   F
(PID.TID 0000.0001)     ;
(PID.TID 0000.0001)    debLevA  =  /* 1rst level of debugging */
(PID.TID 0000.0001)                       1
(PID.TID 0000.0001)     ;
(PID.TID 0000.0001)    debLevB  =  /* 2nd  level of debugging */
(PID.TID 0000.0001)                       2
(PID.TID 0000.0001)     ;
(PID.TID 0000.0001)  debugLevel =  /* select debugging level */
(PID.TID 0000.0001)                       1
(PID.TID 0000.0001)     ;
(PID.TID 0000.0001) //
(PID.TID 0000.0001) // Elliptic solver(s) paramters ( PARM02 in namelist )
(PID.TID 0000.0001) //
(PID.TID 0000.0001) cg2dMaxIters =   /* Upper limit on 2d con. grad iterations  */
(PID.TID 0000.0001)                    1000
(PID.TID 0000.0001)     ;
(PID.TID 0000.0001) cg2dChkResFreq =   /* 2d con. grad convergence test frequency */
(PID.TID 0000.0001)                       1
(PID.TID 0000.0001)     ;
(PID.TID 0000.0001) cg2dTargetResidual =   /* 2d con. grad target residual  */
(PID.TID 0000.0001)                 1.000000000000000E-13
(PID.TID 0000.0001)     ;
(PID.TID 0000.0001) cg2dTargetResWunit =   /* CG2d target residual [W units] */
(PID.TID 0000.0001)                -1.000000000000000E+00
(PID.TID 0000.0001)     ;
(PID.TID 0000.0001) cg2dPreCondFreq =   /* Freq. for updating cg2d preconditioner */
(PID.TID 0000.0001)                       1
(PID.TID 0000.0001)     ;
(PID.TID 0000.0001) //
(PID.TID 0000.0001) // Time stepping paramters ( PARM03 in namelist )
(PID.TID 0000.0001) //
(PID.TID 0000.0001) nIter0 =   /* Run starting timestep number  */
(PID.TID 0000.0001)                       0
(PID.TID 0000.0001)     ;
(PID.TID 0000.0001) nTimeSteps =   /* Number of timesteps */
(PID.TID 0000.0001)                      20
(PID.TID 0000.0001)     ;
(PID.TID 0000.0001) deltaTmom =   /* Momentum equation timestep ( s ) */
(PID.TID 0000.0001)                 3.600000000000000E+03
(PID.TID 0000.0001)     ;
(PID.TID 0000.0001) deltaTfreesurf =   /* FreeSurface equation timestep ( s ) */
(PID.TID 0000.0001)                 3.600000000000000E+03
(PID.TID 0000.0001)     ;
(PID.TID 0000.0001) dTtracerLev =   /* Tracer equation timestep ( s ) */
(PID.TID 0000.0001)    23 @  3.600000000000000E+03              /* K =  1: 23 */
(PID.TID 0000.0001)     ;
(PID.TID 0000.0001) deltaTClock  =   /* Model clock timestep ( s ) */
(PID.TID 0000.0001)                 3.600000000000000E+03
(PID.TID 0000.0001)     ;
(PID.TID 0000.0001) cAdjFreq =   /* Convective adjustment interval ( s ) */
(PID.TID 0000.0001)                 0.000000000000000E+00
(PID.TID 0000.0001)     ;
(PID.TID 0000.0001) momForcingOutAB = /* =1: take Momentum Forcing out of Adams-Bash. stepping */
(PID.TID 0000.0001)                       0
(PID.TID 0000.0001)     ;
(PID.TID 0000.0001) tracForcingOutAB = /* =1: take T,S,pTr Forcing out of Adams-Bash. stepping */
(PID.TID 0000.0001)                       0
(PID.TID 0000.0001)     ;
(PID.TID 0000.0001) momDissip_In_AB = /* put Dissipation Tendency in Adams-Bash. stepping */
(PID.TID 0000.0001)                   T
(PID.TID 0000.0001)     ;
(PID.TID 0000.0001) doAB_onGtGs = /* apply AB on Tendencies (rather than on T,S)*/
(PID.TID 0000.0001)                   T
(PID.TID 0000.0001)     ;
(PID.TID 0000.0001) abEps =   /* Adams-Bashforth-2 stabilizing weight */
(PID.TID 0000.0001)                 1.000000000000000E-01
(PID.TID 0000.0001)     ;
(PID.TID 0000.0001) tauCD =   /* CD coupling time-scale ( s ) */
(PID.TID 0000.0001)                 1.728000000000000E+05
(PID.TID 0000.0001)     ;
(PID.TID 0000.0001) rCD =   /* Normalised CD coupling parameter */
(PID.TID 0000.0001)                 9.791666666666666E-01
(PID.TID 0000.0001)     ;
(PID.TID 0000.0001) baseTime =   /* Model base time ( s ). */
(PID.TID 0000.0001)                 2.160000000000000E+04
(PID.TID 0000.0001)     ;
(PID.TID 0000.0001) startTime =   /* Run start time ( s ). */
(PID.TID 0000.0001)                 2.160000000000000E+04
(PID.TID 0000.0001)     ;
(PID.TID 0000.0001) endTime =   /* Integration ending time ( s ). */
(PID.TID 0000.0001)                 9.360000000000000E+04
(PID.TID 0000.0001)     ;
(PID.TID 0000.0001) pChkPtFreq =   /* Permanent restart/checkpoint file interval ( s ). */
(PID.TID 0000.0001)                 0.000000000000000E+00
(PID.TID 0000.0001)     ;
(PID.TID 0000.0001) chkPtFreq =   /* Rolling restart/checkpoint file interval ( s ). */
(PID.TID 0000.0001)                 0.000000000000000E+00
(PID.TID 0000.0001)     ;
(PID.TID 0000.0001) pickup_write_mdsio =   /* Model IO flag. */
(PID.TID 0000.0001)                   T
(PID.TID 0000.0001)     ;
(PID.TID 0000.0001) pickup_read_mdsio =   /* Model IO flag. */
(PID.TID 0000.0001)                   T
(PID.TID 0000.0001)     ;
(PID.TID 0000.0001) pickup_write_immed =   /* Model IO flag. */
(PID.TID 0000.0001)                   F
(PID.TID 0000.0001)     ;
(PID.TID 0000.0001) dumpFreq =   /* Model state write out interval ( s ). */
(PID.TID 0000.0001)                 8.640000000000000E+04
(PID.TID 0000.0001)     ;
(PID.TID 0000.0001) dumpInitAndLast= /* write out Initial & Last iter. model state */
(PID.TID 0000.0001)                   T
(PID.TID 0000.0001)     ;
(PID.TID 0000.0001) snapshot_mdsio =   /* Model IO flag. */
(PID.TID 0000.0001)                   T
(PID.TID 0000.0001)     ;
(PID.TID 0000.0001) monitorFreq =   /* Monitor output interval ( s ). */
(PID.TID 0000.0001)                 1.000000000000000E+00
(PID.TID 0000.0001)     ;
(PID.TID 0000.0001) monitor_stdio =   /* Model IO flag. */
(PID.TID 0000.0001)                   T
(PID.TID 0000.0001)     ;
(PID.TID 0000.0001) externForcingPeriod =   /* forcing period (s) */
(PID.TID 0000.0001)                 4.320000000000000E+04
(PID.TID 0000.0001)     ;
(PID.TID 0000.0001) externForcingCycle =   /* period of the cyle (s). */
(PID.TID 0000.0001)                 2.764800000000000E+06
(PID.TID 0000.0001)     ;
(PID.TID 0000.0001) tauThetaClimRelax =   /* relaxation time scale (s) */
(PID.TID 0000.0001)                 2.592000000000000E+06
(PID.TID 0000.0001)     ;
(PID.TID 0000.0001) tauSaltClimRelax =   /* relaxation time scale (s) */
(PID.TID 0000.0001)                 2.592000000000000E+06
(PID.TID 0000.0001)     ;
(PID.TID 0000.0001) latBandClimRelax =   /* max. Lat. where relaxation */
(PID.TID 0000.0001)                 1.800000000000000E+02
(PID.TID 0000.0001)     ;
(PID.TID 0000.0001) //
(PID.TID 0000.0001) // Gridding paramters ( PARM04 in namelist )
(PID.TID 0000.0001) //
(PID.TID 0000.0001) usingCartesianGrid = /* Cartesian coordinates flag ( True/False ) */
(PID.TID 0000.0001)                   F
(PID.TID 0000.0001)     ;
(PID.TID 0000.0001) usingCylindricalGrid = /* Cylindrical coordinates flag ( True/False ) */
(PID.TID 0000.0001)                   F
(PID.TID 0000.0001)     ;
(PID.TID 0000.0001) usingSphericalPolarGrid = /* Spherical coordinates flag ( True/False ) */
(PID.TID 0000.0001)                   T
(PID.TID 0000.0001)     ;
(PID.TID 0000.0001) usingCurvilinearGrid = /* Curvilinear coordinates flag ( True/False ) */
(PID.TID 0000.0001)                   F
(PID.TID 0000.0001)     ;
(PID.TID 0000.0001) Ro_SeaLevel = /* r(1) ( units of r ) */
(PID.TID 0000.0001)                 0.000000000000000E+00
(PID.TID 0000.0001)     ;
(PID.TID 0000.0001) rkSign =   /* index orientation relative to vertical coordinate */
(PID.TID 0000.0001)                -1.000000000000000E+00
(PID.TID 0000.0001)     ;
(PID.TID 0000.0001) gravitySign = /* gravity orientation relative to vertical coordinate */
(PID.TID 0000.0001)                -1.000000000000000E+00
(PID.TID 0000.0001)     ;
(PID.TID 0000.0001) mass2rUnit = /* convert mass per unit area [kg/m2] to r-units [m] */
(PID.TID 0000.0001)                 1.000200040008002E-03
(PID.TID 0000.0001)     ;
(PID.TID 0000.0001) rUnit2mass = /* convert r-units [m] to mass per unit area [kg/m2] */
(PID.TID 0000.0001)                 9.998000000000000E+02
(PID.TID 0000.0001)     ;
(PID.TID 0000.0001) drC =   /* C spacing ( units of r ) */
(PID.TID 0000.0001)                 5.000000000000000E+00,      /* K =  1 */
(PID.TID 0000.0001)                 1.000000000000000E+01,      /* K =  2 */
(PID.TID 0000.0001)                 1.250000000000000E+01,      /* K =  3 */
(PID.TID 0000.0001)                 1.750000000000000E+01,      /* K =  4 */
(PID.TID 0000.0001)                 2.000000000000000E+01,      /* K =  5 */
(PID.TID 0000.0001)                 2.250000000000000E+01,      /* K =  6 */
(PID.TID 0000.0001)                 3.000000000000000E+01,      /* K =  7 */
(PID.TID 0000.0001)                 4.250000000000000E+01,      /* K =  8 */
(PID.TID 0000.0001)                 6.250000000000000E+01,      /* K =  9 */
(PID.TID 0000.0001)                 8.750000000000000E+01,      /* K = 10 */
(PID.TID 0000.0001)                 1.250000000000000E+02,      /* K = 11 */
(PID.TID 0000.0001)                 1.750000000000000E+02,      /* K = 12 */
(PID.TID 0000.0001)                 2.375000000000000E+02,      /* K = 13 */
(PID.TID 0000.0001)                 3.125000000000000E+02,      /* K = 14 */
(PID.TID 0000.0001)                 3.825000000000000E+02,      /* K = 15 */
(PID.TID 0000.0001)                 4.325000000000000E+02,      /* K = 16 */
(PID.TID 0000.0001)                 4.750000000000000E+02,      /* K = 17 */
(PID.TID 0000.0001)     6 @  5.000000000000000E+02              /* K = 18: 23 */
(PID.TID 0000.0001)     ;
(PID.TID 0000.0001) drF =   /* W spacing ( units of r ) */
(PID.TID 0000.0001)     2 @  1.000000000000000E+01,             /* K =  1:  2 */
(PID.TID 0000.0001)                 1.500000000000000E+01,      /* K =  3 */
(PID.TID 0000.0001)     2 @  2.000000000000000E+01,             /* K =  4:  5 */
(PID.TID 0000.0001)                 2.500000000000000E+01,      /* K =  6 */
(PID.TID 0000.0001)                 3.500000000000000E+01,      /* K =  7 */
(PID.TID 0000.0001)                 5.000000000000000E+01,      /* K =  8 */
(PID.TID 0000.0001)                 7.500000000000000E+01,      /* K =  9 */
(PID.TID 0000.0001)                 1.000000000000000E+02,      /* K = 10 */
(PID.TID 0000.0001)                 1.500000000000000E+02,      /* K = 11 */
(PID.TID 0000.0001)                 2.000000000000000E+02,      /* K = 12 */
(PID.TID 0000.0001)                 2.750000000000000E+02,      /* K = 13 */
(PID.TID 0000.0001)                 3.500000000000000E+02,      /* K = 14 */
(PID.TID 0000.0001)                 4.150000000000000E+02,      /* K = 15 */
(PID.TID 0000.0001)                 4.500000000000000E+02,      /* K = 16 */
(PID.TID 0000.0001)     7 @  5.000000000000000E+02              /* K = 17: 23 */
(PID.TID 0000.0001)     ;
(PID.TID 0000.0001) delX =   /* U spacing ( m - cartesian, degrees - spherical ) */
(PID.TID 0000.0001)    20 @  2.000000000000000E+00              /* I =  1: 20 */
(PID.TID 0000.0001)     ;
(PID.TID 0000.0001) delY =   /* V spacing ( m - cartesian, degrees - spherical ) */
(PID.TID 0000.0001)    16 @  2.000000000000000E+00              /* J =  1: 16 */
(PID.TID 0000.0001)     ;
(PID.TID 0000.0001) phiMin =    /* South edge (ignored - cartesian, degrees - spherical ) */
(PID.TID 0000.0001)                 1.000000000000000E+01
(PID.TID 0000.0001)     ;
(PID.TID 0000.0001) thetaMin =    /* West edge ( ignored - cartesian, degrees - spherical ) */
(PID.TID 0000.0001)                -4.200000000000000E+01
(PID.TID 0000.0001)     ;
(PID.TID 0000.0001) rSphere =  /* Radius ( ignored - cartesian, m - spherical ) */
(PID.TID 0000.0001)                 6.370000000000000E+06
(PID.TID 0000.0001)     ;
(PID.TID 0000.0001) deepAtmosphere = /* Deep/Shallow Atmosphere flag (True/False) */
(PID.TID 0000.0001)                   F
(PID.TID 0000.0001)     ;
(PID.TID 0000.0001) xcoord =   /* P-point X coord ( m - cartesian, degrees - spherical ) */
(PID.TID 0000.0001)                -4.100000000000000E+01,      /* I =  1 */
(PID.TID 0000.0001)                -3.900000000000000E+01,      /* I =  2 */
(PID.TID 0000.0001)                -3.700000000000000E+01,      /* I =  3 */
(PID.TID 0000.0001)                -3.500000000000000E+01,      /* I =  4 */
(PID.TID 0000.0001)                -3.300000000000000E+01,      /* I =  5 */
(PID.TID 0000.0001)                -3.100000000000000E+01,      /* I =  6 */
(PID.TID 0000.0001)                -2.900000000000000E+01,      /* I =  7 */
(PID.TID 0000.0001)                -2.700000000000000E+01,      /* I =  8 */
(PID.TID 0000.0001)                -2.500000000000000E+01,      /* I =  9 */
(PID.TID 0000.0001)                -2.300000000000000E+01,      /* I = 10 */
(PID.TID 0000.0001)                -2.100000000000000E+01,      /* I = 11 */
(PID.TID 0000.0001)                -1.900000000000000E+01,      /* I = 12 */
(PID.TID 0000.0001)                -1.700000000000000E+01,      /* I = 13 */
(PID.TID 0000.0001)                -1.500000000000000E+01,      /* I = 14 */
(PID.TID 0000.0001)                -1.300000000000000E+01,      /* I = 15 */
(PID.TID 0000.0001)                -1.100000000000000E+01,      /* I = 16 */
(PID.TID 0000.0001)                -9.000000000000000E+00,      /* I = 17 */
(PID.TID 0000.0001)                -7.000000000000000E+00,      /* I = 18 */
(PID.TID 0000.0001)                -5.000000000000000E+00,      /* I = 19 */
(PID.TID 0000.0001)                -3.000000000000000E+00       /* I = 20 */
(PID.TID 0000.0001)     ;
(PID.TID 0000.0001) ycoord =   /* P-point Y coord ( m - cartesian, degrees - spherical ) */
(PID.TID 0000.0001)                 1.100000000000000E+01,      /* J =  1 */
(PID.TID 0000.0001)                 1.300000000000000E+01,      /* J =  2 */
(PID.TID 0000.0001)                 1.500000000000000E+01,      /* J =  3 */
(PID.TID 0000.0001)                 1.700000000000000E+01,      /* J =  4 */
(PID.TID 0000.0001)                 1.900000000000000E+01,      /* J =  5 */
(PID.TID 0000.0001)                 2.100000000000000E+01,      /* J =  6 */
(PID.TID 0000.0001)                 2.300000000000000E+01,      /* J =  7 */
(PID.TID 0000.0001)                 2.500000000000000E+01,      /* J =  8 */
(PID.TID 0000.0001)                 2.700000000000000E+01,      /* J =  9 */
(PID.TID 0000.0001)                 2.900000000000000E+01,      /* J = 10 */
(PID.TID 0000.0001)                 3.100000000000000E+01,      /* J = 11 */
(PID.TID 0000.0001)                 3.300000000000000E+01,      /* J = 12 */
(PID.TID 0000.0001)                 3.500000000000000E+01,      /* J = 13 */
(PID.TID 0000.0001)                 3.700000000000000E+01,      /* J = 14 */
(PID.TID 0000.0001)                 3.900000000000000E+01,      /* J = 15 */
(PID.TID 0000.0001)                 4.100000000000000E+01       /* J = 16 */
(PID.TID 0000.0001)     ;
(PID.TID 0000.0001) rcoord =   /* P-point R coordinate (  units of r ) */
(PID.TID 0000.0001)                -5.000000000000000E+00,      /* K =  1 */
(PID.TID 0000.0001)                -1.500000000000000E+01,      /* K =  2 */
(PID.TID 0000.0001)                -2.750000000000000E+01,      /* K =  3 */
(PID.TID 0000.0001)                -4.500000000000000E+01,      /* K =  4 */
(PID.TID 0000.0001)                -6.500000000000000E+01,      /* K =  5 */
(PID.TID 0000.0001)                -8.750000000000000E+01,      /* K =  6 */
(PID.TID 0000.0001)                -1.175000000000000E+02,      /* K =  7 */
(PID.TID 0000.0001)                -1.600000000000000E+02,      /* K =  8 */
(PID.TID 0000.0001)                -2.225000000000000E+02,      /* K =  9 */
(PID.TID 0000.0001)                -3.100000000000000E+02,      /* K = 10 */
(PID.TID 0000.0001)                -4.350000000000000E+02,      /* K = 11 */
(PID.TID 0000.0001)                -6.100000000000000E+02,      /* K = 12 */
(PID.TID 0000.0001)                -8.475000000000000E+02,      /* K = 13 */
(PID.TID 0000.0001)                -1.160000000000000E+03,      /* K = 14 */
(PID.TID 0000.0001)                -1.542500000000000E+03,      /* K = 15 */
(PID.TID 0000.0001)                -1.975000000000000E+03,      /* K = 16 */
(PID.TID 0000.0001)                -2.450000000000000E+03,      /* K = 17 */
(PID.TID 0000.0001)                -2.950000000000000E+03,      /* K = 18 */
(PID.TID 0000.0001)                -3.450000000000000E+03,      /* K = 19 */
(PID.TID 0000.0001)                -3.950000000000000E+03,      /* K = 20 */
(PID.TID 0000.0001)                -4.450000000000000E+03,      /* K = 21 */
(PID.TID 0000.0001)                -4.950000000000000E+03,      /* K = 22 */
(PID.TID 0000.0001)                -5.450000000000000E+03       /* K = 23 */
(PID.TID 0000.0001)     ;
(PID.TID 0000.0001) rF =   /* W-Interf. R coordinate (  units of r ) */
(PID.TID 0000.0001)                 0.000000000000000E+00,      /* K =  1 */
(PID.TID 0000.0001)                -1.000000000000000E+01,      /* K =  2 */
(PID.TID 0000.0001)                -2.000000000000000E+01,      /* K =  3 */
(PID.TID 0000.0001)                -3.500000000000000E+01,      /* K =  4 */
(PID.TID 0000.0001)                -5.500000000000000E+01,      /* K =  5 */
(PID.TID 0000.0001)                -7.500000000000000E+01,      /* K =  6 */
(PID.TID 0000.0001)                -1.000000000000000E+02,      /* K =  7 */
(PID.TID 0000.0001)                -1.350000000000000E+02,      /* K =  8 */
(PID.TID 0000.0001)                -1.850000000000000E+02,      /* K =  9 */
(PID.TID 0000.0001)                -2.600000000000000E+02,      /* K = 10 */
(PID.TID 0000.0001)                -3.600000000000000E+02,      /* K = 11 */
(PID.TID 0000.0001)                -5.100000000000000E+02,      /* K = 12 */
(PID.TID 0000.0001)                -7.100000000000000E+02,      /* K = 13 */
(PID.TID 0000.0001)                -9.850000000000000E+02,      /* K = 14 */
(PID.TID 0000.0001)                -1.335000000000000E+03,      /* K = 15 */
(PID.TID 0000.0001)                -1.750000000000000E+03,      /* K = 16 */
(PID.TID 0000.0001)                -2.200000000000000E+03,      /* K = 17 */
(PID.TID 0000.0001)                -2.700000000000000E+03,      /* K = 18 */
(PID.TID 0000.0001)                -3.200000000000000E+03,      /* K = 19 */
(PID.TID 0000.0001)                -3.700000000000000E+03,      /* K = 20 */
(PID.TID 0000.0001)                -4.200000000000000E+03,      /* K = 21 */
(PID.TID 0000.0001)                -4.700000000000000E+03,      /* K = 22 */
(PID.TID 0000.0001)                -5.200000000000000E+03,      /* K = 23 */
(PID.TID 0000.0001)                -5.700000000000000E+03       /* K = 24 */
(PID.TID 0000.0001)     ;
(PID.TID 0000.0001) deepFacC = /* deep-model grid factor @ cell-Center (-) */
(PID.TID 0000.0001)    23 @  1.000000000000000E+00              /* K =  1: 23 */
(PID.TID 0000.0001)     ;
(PID.TID 0000.0001) deepFacF = /* deep-model grid factor @ W-Interface (-) */
(PID.TID 0000.0001)    24 @  1.000000000000000E+00              /* K =  1: 24 */
(PID.TID 0000.0001)     ;
(PID.TID 0000.0001) rVel2wUnit = /* convert units: rVel -> wSpeed (=1 if z-coord)*/
(PID.TID 0000.0001)    24 @  1.000000000000000E+00              /* K =  1: 24 */
(PID.TID 0000.0001)     ;
(PID.TID 0000.0001) wUnit2rVel = /* convert units: wSpeed -> rVel (=1 if z-coord)*/
(PID.TID 0000.0001)    24 @  1.000000000000000E+00              /* K =  1: 24 */
(PID.TID 0000.0001)     ;
(PID.TID 0000.0001) dBdrRef = /* Vertical gradient of reference boyancy [(m/s/r)^2)] */
(PID.TID 0000.0001)    23 @  0.000000000000000E+00              /* K =  1: 23 */
(PID.TID 0000.0001)     ;
(PID.TID 0000.0001) dxF =  /* dxF(:,1,:,1) ( units: m ) */
(PID.TID 0000.0001)    20 @  2.182696600587791E+05              /* I =  1: 20 */
(PID.TID 0000.0001)     ;
(PID.TID 0000.0001) dxF =  /* dxF(1,:,1,:) ( units: m ) */
(PID.TID 0000.0001)                 2.182696600587791E+05,      /* J =  1 */
(PID.TID 0000.0001)                 2.166560038253696E+05,      /* J =  2 */
(PID.TID 0000.0001)                 2.147783856245979E+05,      /* J =  3 */
(PID.TID 0000.0001)                 2.126390930450167E+05,      /* J =  4 */
(PID.TID 0000.0001)                 2.102407324851014E+05,      /* J =  5 */
(PID.TID 0000.0001)                 2.075862259777553E+05,      /* J =  6 */
(PID.TID 0000.0001)                 2.046788076302621E+05,      /* J =  7 */
(PID.TID 0000.0001)                 2.015220196840248E+05,      /* J =  8 */
(PID.TID 0000.0001)                 1.981197081988899E+05,      /* J =  9 */
(PID.TID 0000.0001)                 1.944760183673163E+05,      /* J = 10 */
(PID.TID 0000.0001)                 1.905953894640962E+05,      /* J = 11 */
(PID.TID 0000.0001)                 1.864825494377832E+05,      /* J = 12 */
(PID.TID 0000.0001)                 1.821425091504150E+05,      /* J = 13 */
(PID.TID 0000.0001)                 1.775805562725496E+05,      /* J = 14 */
(PID.TID 0000.0001)                 1.728022488410539E+05,      /* J = 15 */
(PID.TID 0000.0001)                 1.678134084874913E+05       /* J = 16 */
(PID.TID 0000.0001)     ;
(PID.TID 0000.0001) dyF =  /* dyF(:,1,:,1) ( units: m ) */
(PID.TID 0000.0001)    20 @  2.223549467040776E+05              /* I =  1: 20 */
(PID.TID 0000.0001)     ;
(PID.TID 0000.0001) dyF =  /* dyF(1,:,1,:) ( units: m ) */
(PID.TID 0000.0001)    16 @  2.223549467040776E+05              /* J =  1: 16 */
(PID.TID 0000.0001)     ;
(PID.TID 0000.0001) dxG =  /* dxG(:,1,:,1) ( units: m ) */
(PID.TID 0000.0001)    20 @  2.189768754347919E+05              /* I =  1: 20 */
(PID.TID 0000.0001)     ;
(PID.TID 0000.0001) dxG =  /* dxG(1,:,1,:) ( units: m ) */
(PID.TID 0000.0001)                 2.189768754347919E+05,      /* J =  1 */
(PID.TID 0000.0001)                 2.174959576298867E+05,      /* J =  2 */
(PID.TID 0000.0001)                 2.157500545032935E+05,      /* J =  3 */
(PID.TID 0000.0001)                 2.137412931690361E+05,      /* J =  4 */
(PID.TID 0000.0001)                 2.114721209933746E+05,      /* J =  5 */
(PID.TID 0000.0001)                 2.089453026130656E+05,      /* J =  6 */
(PID.TID 0000.0001)                 2.061639165670793E+05,      /* J =  7 */
(PID.TID 0000.0001)                 2.031313515458727E+05,      /* J =  8 */
(PID.TID 0000.0001)                 1.998513022627935E+05,      /* J =  9 */
(PID.TID 0000.0001)                 1.963277649526403E+05,      /* J = 10 */
(PID.TID 0000.0001)                 1.925650325028661E+05,      /* J = 11 */
(PID.TID 0000.0001)                 1.885676892233566E+05,      /* J = 12 */
(PID.TID 0000.0001)                 1.843406052611541E+05,      /* J = 13 */
(PID.TID 0000.0001)                 1.798889306669345E+05,      /* J = 14 */
(PID.TID 0000.0001)                 1.752180891204627E+05,      /* J = 15 */
(PID.TID 0000.0001)                 1.703337713226751E+05       /* J = 16 */
(PID.TID 0000.0001)     ;
(PID.TID 0000.0001) dyG =  /* dyG(:,1,:,1) ( units: m ) */
(PID.TID 0000.0001)    20 @  2.223549467040776E+05              /* I =  1: 20 */
(PID.TID 0000.0001)     ;
(PID.TID 0000.0001) dyG =  /* dyG(1,:,1,:) ( units: m ) */
(PID.TID 0000.0001)    16 @  2.223549467040776E+05              /* J =  1: 16 */
(PID.TID 0000.0001)     ;
(PID.TID 0000.0001) dxC =  /* dxC(:,1,:,1) ( units: m ) */
(PID.TID 0000.0001)    20 @  2.182696600587791E+05              /* I =  1: 20 */
(PID.TID 0000.0001)     ;
(PID.TID 0000.0001) dxC =  /* dxC(1,:,1,:) ( units: m ) */
(PID.TID 0000.0001)                 2.182696600587791E+05,      /* J =  1 */
(PID.TID 0000.0001)                 2.166560038253696E+05,      /* J =  2 */
(PID.TID 0000.0001)                 2.147783856245979E+05,      /* J =  3 */
(PID.TID 0000.0001)                 2.126390930450167E+05,      /* J =  4 */
(PID.TID 0000.0001)                 2.102407324851014E+05,      /* J =  5 */
(PID.TID 0000.0001)                 2.075862259777553E+05,      /* J =  6 */
(PID.TID 0000.0001)                 2.046788076302621E+05,      /* J =  7 */
(PID.TID 0000.0001)                 2.015220196840248E+05,      /* J =  8 */
(PID.TID 0000.0001)                 1.981197081988899E+05,      /* J =  9 */
(PID.TID 0000.0001)                 1.944760183673163E+05,      /* J = 10 */
(PID.TID 0000.0001)                 1.905953894640962E+05,      /* J = 11 */
(PID.TID 0000.0001)                 1.864825494377832E+05,      /* J = 12 */
(PID.TID 0000.0001)                 1.821425091504150E+05,      /* J = 13 */
(PID.TID 0000.0001)                 1.775805562725496E+05,      /* J = 14 */
(PID.TID 0000.0001)                 1.728022488410539E+05,      /* J = 15 */
(PID.TID 0000.0001)                 1.678134084874913E+05       /* J = 16 */
(PID.TID 0000.0001)     ;
(PID.TID 0000.0001) dyC =  /* dyC(:,1,:,1) ( units: m ) */
(PID.TID 0000.0001)    20 @  2.223549467040776E+05              /* I =  1: 20 */
(PID.TID 0000.0001)     ;
(PID.TID 0000.0001) dyC =  /* dyC(1,:,1,:) ( units: m ) */
(PID.TID 0000.0001)    16 @  2.223549467040776E+05              /* J =  1: 16 */
(PID.TID 0000.0001)     ;
(PID.TID 0000.0001) dxV =  /* dxV(:,1,:,1) ( units: m ) */
(PID.TID 0000.0001)    20 @  2.189768754347919E+05              /* I =  1: 20 */
(PID.TID 0000.0001)     ;
(PID.TID 0000.0001) dxV =  /* dxV(1,:,1,:) ( units: m ) */
(PID.TID 0000.0001)                 2.189768754347919E+05,      /* J =  1 */
(PID.TID 0000.0001)                 2.174959576298867E+05,      /* J =  2 */
(PID.TID 0000.0001)                 2.157500545032935E+05,      /* J =  3 */
(PID.TID 0000.0001)                 2.137412931690361E+05,      /* J =  4 */
(PID.TID 0000.0001)                 2.114721209933746E+05,      /* J =  5 */
(PID.TID 0000.0001)                 2.089453026130656E+05,      /* J =  6 */
(PID.TID 0000.0001)                 2.061639165670793E+05,      /* J =  7 */
(PID.TID 0000.0001)                 2.031313515458727E+05,      /* J =  8 */
(PID.TID 0000.0001)                 1.998513022627935E+05,      /* J =  9 */
(PID.TID 0000.0001)                 1.963277649526403E+05,      /* J = 10 */
(PID.TID 0000.0001)                 1.925650325028661E+05,      /* J = 11 */
(PID.TID 0000.0001)                 1.885676892233566E+05,      /* J = 12 */
(PID.TID 0000.0001)                 1.843406052611541E+05,      /* J = 13 */
(PID.TID 0000.0001)                 1.798889306669345E+05,      /* J = 14 */
(PID.TID 0000.0001)                 1.752180891204627E+05,      /* J = 15 */
(PID.TID 0000.0001)                 1.703337713226751E+05       /* J = 16 */
(PID.TID 0000.0001)     ;
(PID.TID 0000.0001) dyU =  /* dyU(:,1,:,1) ( units: m ) */
(PID.TID 0000.0001)    20 @  2.223549467040776E+05              /* I =  1: 20 */
(PID.TID 0000.0001)     ;
(PID.TID 0000.0001) dyU =  /* dyU(1,:,1,:) ( units: m ) */
(PID.TID 0000.0001)    16 @  2.223549467040776E+05              /* J =  1: 16 */
(PID.TID 0000.0001)     ;
(PID.TID 0000.0001) rA  =  /* rA (:,1,:,1) ( units: m^2 ) */
(PID.TID 0000.0001)    20 @  4.853087465028468E+10              /* I =  1: 20 */
(PID.TID 0000.0001)     ;
(PID.TID 0000.0001) rA  =  /* rA (1,:,1,:) ( units: m^2 ) */
(PID.TID 0000.0001)                 4.853087465028468E+10,      /* J =  1 */
(PID.TID 0000.0001)                 4.817208842057614E+10,      /* J =  2 */
(PID.TID 0000.0001)                 4.775461192146850E+10,      /* J =  3 */
(PID.TID 0000.0001)                 4.727895378376868E+10,      /* J =  4 */
(PID.TID 0000.0001)                 4.674569352364785E+10,      /* J =  5 */
(PID.TID 0000.0001)                 4.615548083659052E+10,      /* J =  6 */
(PID.TID 0000.0001)                 4.550903480584064E+10,      /* J =  7 */
(PID.TID 0000.0001)                 4.480714302630917E+10,      /* J =  8 */
(PID.TID 0000.0001)                 4.405066064501157E+10,      /* J =  9 */
(PID.TID 0000.0001)                 4.324050931920184E+10,      /* J = 10 */
(PID.TID 0000.0001)                 4.237767609347683E+10,      /* J = 11 */
(PID.TID 0000.0001)                 4.146321219721255E+10,      /* J = 12 */
(PID.TID 0000.0001)                 4.049823176380374E+10,      /* J = 13 */
(PID.TID 0000.0001)                 3.948391047326549E+10,      /* J = 14 */
(PID.TID 0000.0001)                 3.842148411984549E+10,      /* J = 15 */
(PID.TID 0000.0001)                 3.731224710640178E+10       /* J = 16 */
(PID.TID 0000.0001)     ;
(PID.TID 0000.0001) rAw =  /* rAw(:,1,:,1) ( units: m^2 ) */
(PID.TID 0000.0001)    20 @  4.853087465028468E+10              /* I =  1: 20 */
(PID.TID 0000.0001)     ;
(PID.TID 0000.0001) rAw =  /* rAw(1,:,1,:) ( units: m^2 ) */
(PID.TID 0000.0001)                 4.853087465028468E+10,      /* J =  1 */
(PID.TID 0000.0001)                 4.817208842057614E+10,      /* J =  2 */
(PID.TID 0000.0001)                 4.775461192146850E+10,      /* J =  3 */
(PID.TID 0000.0001)                 4.727895378376868E+10,      /* J =  4 */
(PID.TID 0000.0001)                 4.674569352364785E+10,      /* J =  5 */
(PID.TID 0000.0001)                 4.615548083659052E+10,      /* J =  6 */
(PID.TID 0000.0001)                 4.550903480584064E+10,      /* J =  7 */
(PID.TID 0000.0001)                 4.480714302630917E+10,      /* J =  8 */
(PID.TID 0000.0001)                 4.405066064501157E+10,      /* J =  9 */
(PID.TID 0000.0001)                 4.324050931920184E+10,      /* J = 10 */
(PID.TID 0000.0001)                 4.237767609347683E+10,      /* J = 11 */
(PID.TID 0000.0001)                 4.146321219721255E+10,      /* J = 12 */
(PID.TID 0000.0001)                 4.049823176380374E+10,      /* J = 13 */
(PID.TID 0000.0001)                 3.948391047326549E+10,      /* J = 14 */
(PID.TID 0000.0001)                 3.842148411984549E+10,      /* J = 15 */
(PID.TID 0000.0001)                 3.731224710640178E+10       /* J = 16 */
(PID.TID 0000.0001)     ;
(PID.TID 0000.0001) rAs =  /* rAs(:,1,:,1) ( units: m^2 ) */
(PID.TID 0000.0001)    20 @  4.868811950398895E+10              /* I =  1: 20 */
(PID.TID 0000.0001)     ;
(PID.TID 0000.0001) rAs =  /* rAs(1,:,1,:) ( units: m^2 ) */
(PID.TID 0000.0001)                 4.868811950398895E+10,      /* J =  1 */
(PID.TID 0000.0001)                 4.835884682203275E+10,      /* J =  2 */
(PID.TID 0000.0001)                 4.797065633433311E+10,      /* J =  3 */
(PID.TID 0000.0001)                 4.752402099120342E+10,      /* J =  4 */
(PID.TID 0000.0001)                 4.701948494900997E+10,      /* J =  5 */
(PID.TID 0000.0001)                 4.645766290720264E+10,      /* J =  6 */
(PID.TID 0000.0001)                 4.583923935939737E+10,      /* J =  7 */
(PID.TID 0000.0001)                 4.516496775942608E+10,      /* J =  8 */
(PID.TID 0000.0001)                 4.443566960336987E+10,      /* J =  9 */
(PID.TID 0000.0001)                 4.365223342869237E+10,      /* J = 10 */
(PID.TID 0000.0001)                 4.281561373169270E+10,      /* J = 11 */
(PID.TID 0000.0001)                 4.192682980460108E+10,      /* J = 12 */
(PID.TID 0000.0001)                 4.098696449372525E+10,      /* J = 13 */
(PID.TID 0000.0001)                 3.999716288017197E+10,      /* J = 14 */
(PID.TID 0000.0001)                 3.895863088473959E+10,      /* J = 15 */
(PID.TID 0000.0001)                 3.787263379869147E+10       /* J = 16 */
(PID.TID 0000.0001)     ;
(PID.TID 0000.0001) globalArea = /* Integrated horizontal Area (m^2) */
(PID.TID 0000.0001)                 8.853746056302295E+12
(PID.TID 0000.0001)     ;
(PID.TID 0000.0001) // =======================================================
(PID.TID 0000.0001) // End of Model config. summary
(PID.TID 0000.0001) // =======================================================
(PID.TID 0000.0001) 
(PID.TID 0000.0001)  MDS_READ_FIELD: opening global file: kf_climtheta
(PID.TID 0000.0001) // =======================================================
(PID.TID 0000.0001) // Field Initial Temperature at iteration          1
(PID.TID 0000.0001) // CMIN =          1.840084838867188E+01
(PID.TID 0000.0001) // CMAX =          2.607793426513672E+01
(PID.TID 0000.0001) // CINT =          2.843365139431424E-01
(PID.TID 0000.0001) // SYMBOLS (CMIN->CMAX): -abcdefghijklmnopqrstuvwxyz+
(PID.TID 0000.0001) //                  0.0: .
(PID.TID 0000.0001) // RANGE I (Lo:Hi:Step):(   1:  20:   1)
(PID.TID 0000.0001) // RANGE J (Lo:Hi:Step):(  16:   1:  -1)
(PID.TID 0000.0001) // RANGE K (Lo:Hi:Step):(   1:   1:   1)
(PID.TID 0000.0001) // =======================================================
(PID.TID 0000.0001) K =   1
(PID.TID 0000.0001)                I=10      I=20
(PID.TID 0000.0001) |--J--|123456789|123456789|
(PID.TID 0000.0001)     16 ....................
(PID.TID 0000.0001)     15 .jihhgfeedddcba---a.
(PID.TID 0000.0001)     14 .kjiihggffeedcbbabb.
(PID.TID 0000.0001)     13 .lkkjiiiihgfedccbc..
(PID.TID 0000.0001)     12 .mllkkjjjihgfedcc...
(PID.TID 0000.0001)     11 .onnmmllkjihgfeec...
(PID.TID 0000.0001)     10 .rrqqponmmlkihf.....
(PID.TID 0000.0001)      9 .utssrqponmljh......
(PID.TID 0000.0001)      8 .vuttsrqponlig......
(PID.TID 0000.0001)      7 .vuutsrrponkif......
(PID.TID 0000.0001)      6 .wvvuutsrqomjh......
(PID.TID 0000.0001)      5 .yxwwwvutsrpnl......
(PID.TID 0000.0001)      4 .zyyyxxwwvutrq......
(PID.TID 0000.0001)      3 .zzzzyyxxxxwvu......
(PID.TID 0000.0001)      2 .+++++zzz+++zy......
(PID.TID 0000.0001)      1 ....................
(PID.TID 0000.0001) // =======================================================
(PID.TID 0000.0001) // END OF FIELD                                          =
(PID.TID 0000.0001) // =======================================================
(PID.TID 0000.0001) 
(PID.TID 0000.0001)  MDS_READ_FIELD: opening global file: kf_climsalt
(PID.TID 0000.0001) // =======================================================
(PID.TID 0000.0001) // Field Initial Salinity at iteration          1
(PID.TID 0000.0001) // CMIN =          3.501070022583008E+01
(PID.TID 0000.0001) // CMAX =          3.739887619018555E+01
(PID.TID 0000.0001) // CINT =          8.845096164279515E-02
(PID.TID 0000.0001) // SYMBOLS (CMIN->CMAX): -abcdefghijklmnopqrstuvwxyz+
(PID.TID 0000.0001) //                  0.0: .
(PID.TID 0000.0001) // RANGE I (Lo:Hi:Step):(   1:  20:   1)
(PID.TID 0000.0001) // RANGE J (Lo:Hi:Step):(  16:   1:  -1)
(PID.TID 0000.0001) // RANGE K (Lo:Hi:Step):(   1:   1:   1)
(PID.TID 0000.0001) // =======================================================
(PID.TID 0000.0001) K =   1
(PID.TID 0000.0001)                I=10      I=20
(PID.TID 0000.0001) |--J--|123456789|123456789|
(PID.TID 0000.0001)     16 ....................
(PID.TID 0000.0001)     15 .oonnnnmmnnnnnnmllk.
(PID.TID 0000.0001)     14 .ppppoooopppppppooo.
(PID.TID 0000.0001)     13 .qqqqqrrrrrrqqqqqq..
(PID.TID 0000.0001)     12 .tttttttttttssrqp...
(PID.TID 0000.0001)     11 .wwwwwwvvvvuusrpn...
(PID.TID 0000.0001)     10 .zzyyyyyxxwvusr.....
(PID.TID 0000.0001)      9 .++zzzzyxxwutr......
(PID.TID 0000.0001)      8 .+zzyyyxwvusrp......
(PID.TID 0000.0001)      7 .xxxxwwutsrpnm......
(PID.TID 0000.0001)      6 .uuuuutsqponlj......
(PID.TID 0000.0001)      5 .rrrrqqponmkji......
(PID.TID 0000.0001)      4 .poooonmmlkihg......
(PID.TID 0000.0001)      3 .mmlllllkjihec......
(PID.TID 0000.0001)      2 .jjjkkkjjihfd-......
(PID.TID 0000.0001)      1 ....................
(PID.TID 0000.0001) // =======================================================
(PID.TID 0000.0001) // END OF FIELD                                          =
(PID.TID 0000.0001) // =======================================================
(PID.TID 0000.0001) 
(PID.TID 0000.0001) Start initial hydrostatic pressure computation
(PID.TID 0000.0001) Pressure is predetermined for buoyancyRelation OCEANIC
(PID.TID 0000.0001) 
(PID.TID 0000.0001)  MDS_READ_FIELD: opening global file: kf_tx
(PID.TID 0000.0001)  MDS_READ_FIELD: opening global file: kf_ty
(PID.TID 0000.0001)  MDS_READ_FIELD: opening global file: kf_qnet
(PID.TID 0000.0001)  MDS_READ_FIELD: opening global file: kf_empmr
(PID.TID 0000.0001)  MDS_READ_FIELD: opening global file: kf_sst
(PID.TID 0000.0001)  MDS_READ_FIELD: opening global file: kf_sss
(PID.TID 0000.0001)  MDS_READ_FIELD: opening global file: kf_sw
(PID.TID 0000.0001)  write diagnostics summary to file ioUnit:      6
Iter.Nb:         0 ; Time(s):  2.1600000000000E+04
------------------------------------------------------------------------
2D/3D diagnostics: Number of lists:     7
------------------------------------------------------------------------
listId=   1 ; file name: KPPviscA
 nFlds, nActive,       freq     &   phase        , nLev                 
   1  |   1  |    -86400.000000     43200.000000 |  23
 levels:   1   2   3   4   5   6   7   8   9  10  11  12  13  14  15  16  17  18  19  20  21  22  23
 diag#| name   | ipt  | iMate| kLev| count | mate.C|                    
  169 |KPPviscA|    1 |    0 |  23 |     0 |
------------------------------------------------------------------------
listId=   2 ; file name: KPPdiffS
 nFlds, nActive,       freq     &   phase        , nLev                 
   1  |   1  |    -86400.000000     43200.000000 |  23
 levels:   1   2   3   4   5   6   7   8   9  10  11  12  13  14  15  16  17  18  19  20  21  22  23
 diag#| name   | ipt  | iMate| kLev| count | mate.C|                    
  170 |KPPdiffS|   24 |    0 |  23 |     0 |
------------------------------------------------------------------------
listId=   3 ; file name: KPPdiffT
 nFlds, nActive,       freq     &   phase        , nLev                 
   1  |   1  |    -86400.000000     43200.000000 |  23
 levels:   1   2   3   4   5   6   7   8   9  10  11  12  13  14  15  16  17  18  19  20  21  22  23
 diag#| name   | ipt  | iMate| kLev| count | mate.C|                    
  171 |KPPdiffT|   47 |    0 |  23 |     0 |
------------------------------------------------------------------------
listId=   4 ; file name: KPP_ghat
 nFlds, nActive,       freq     &   phase        , nLev                 
   1  |   1  |    -86400.000000     43200.000000 |  23
 levels:   1   2   3   4   5   6   7   8   9  10  11  12  13  14  15  16  17  18  19  20  21  22  23
 diag#| name   | ipt  | iMate| kLev| count | mate.C|                    
  172 |KPPghat |   70 |    0 |  23 |     0 |
------------------------------------------------------------------------
listId=   5 ; file name: KPP_hbl
 nFlds, nActive,       freq     &   phase        , nLev                 
   1  |   1  |    -86400.000000     43200.000000 |   1
 levels:   1
 diag#| name   | ipt  | iMate| kLev| count | mate.C|                    
  173 |KPPhbl  |   93 |    0 |   1 |     0 |
------------------------------------------------------------------------
listId=   6 ; file name: KPPfrac
 nFlds, nActive,       freq     &   phase        , nLev                 
   1  |   1  |    -86400.000000     43200.000000 |   1
 levels:   1
 diag#| name   | ipt  | iMate| kLev| count | mate.C|                    
  175 |KPPfrac |   94 |    0 |   1 |     0 |
------------------------------------------------------------------------
listId=   7 ; file name: KPPmld
 nFlds, nActive,       freq     &   phase        , nLev                 
   1  |   1  |    -86400.000000     43200.000000 |   1
 levels:   1
 diag#| name   | ipt  | iMate| kLev| count | mate.C|                    
  174 |KPPmld  |   95 |    0 |   1 |     0 |
------------------------------------------------------------------------
Global & Regional Statistics diagnostics: Number of lists:     0
------------------------------------------------------------------------
(PID.TID 0000.0001) // =======================================================
(PID.TID 0000.0001) // Model current state
(PID.TID 0000.0001) // =======================================================
(PID.TID 0000.0001) 
(PID.TID 0000.0001) // =======================================================
(PID.TID 0000.0001) // Begin MONITOR dynamic field statistics
(PID.TID 0000.0001) // =======================================================
(PID.TID 0000.0001) %MON time_tsnumber                =                     0
(PID.TID 0000.0001) %MON time_secondsf                =   2.1600000000000E+04
(PID.TID 0000.0001) %MON dynstat_eta_max              =   0.0000000000000E+00
(PID.TID 0000.0001) %MON dynstat_eta_min              =   0.0000000000000E+00
(PID.TID 0000.0001) %MON dynstat_eta_mean             =   0.0000000000000E+00
(PID.TID 0000.0001) %MON dynstat_eta_sd               =   0.0000000000000E+00
(PID.TID 0000.0001) %MON dynstat_eta_del2             =   0.0000000000000E+00
(PID.TID 0000.0001) %MON dynstat_uvel_max             =   0.0000000000000E+00
(PID.TID 0000.0001) %MON dynstat_uvel_min             =   0.0000000000000E+00
(PID.TID 0000.0001) %MON dynstat_uvel_mean            =   0.0000000000000E+00
(PID.TID 0000.0001) %MON dynstat_uvel_sd              =   0.0000000000000E+00
(PID.TID 0000.0001) %MON dynstat_uvel_del2            =   0.0000000000000E+00
(PID.TID 0000.0001) %MON dynstat_vvel_max             =   0.0000000000000E+00
(PID.TID 0000.0001) %MON dynstat_vvel_min             =   0.0000000000000E+00
(PID.TID 0000.0001) %MON dynstat_vvel_mean            =   0.0000000000000E+00
(PID.TID 0000.0001) %MON dynstat_vvel_sd              =   0.0000000000000E+00
(PID.TID 0000.0001) %MON dynstat_vvel_del2            =   0.0000000000000E+00
(PID.TID 0000.0001) %MON dynstat_wvel_max             =   0.0000000000000E+00
(PID.TID 0000.0001) %MON dynstat_wvel_min             =   0.0000000000000E+00
(PID.TID 0000.0001) %MON dynstat_wvel_mean            =   0.0000000000000E+00
(PID.TID 0000.0001) %MON dynstat_wvel_sd              =   0.0000000000000E+00
(PID.TID 0000.0001) %MON dynstat_wvel_del2            =   0.0000000000000E+00
(PID.TID 0000.0001) %MON dynstat_theta_max            =   2.6077934265137E+01
(PID.TID 0000.0001) %MON dynstat_theta_min            =   1.8064365386963E+00
(PID.TID 0000.0001) %MON dynstat_theta_mean           =   5.4784105600004E+00
(PID.TID 0000.0001) %MON dynstat_theta_sd             =   4.5923951934310E+00
(PID.TID 0000.0001) %MON dynstat_theta_del2           =   5.0898848572070E-02
(PID.TID 0000.0001) %MON dynstat_salt_max             =   3.7401638031006E+01
(PID.TID 0000.0001) %MON dynstat_salt_min             =   3.4726768493652E+01
(PID.TID 0000.0001) %MON dynstat_salt_mean            =   3.5157555715946E+01
(PID.TID 0000.0001) %MON dynstat_salt_sd              =   4.1377404390946E-01
(PID.TID 0000.0001) %MON dynstat_salt_del2            =   1.2632116608019E-02
(PID.TID 0000.0001) %MON extforcing_qnet_max          =   2.5772109985352E+01
(PID.TID 0000.0001) %MON extforcing_qnet_min          =  -1.7793640136719E+02
(PID.TID 0000.0001) %MON extforcing_qnet_mean         =  -8.6225629002468E+01
(PID.TID 0000.0001) %MON extforcing_qnet_sd           =   5.2166051016192E+01
(PID.TID 0000.0001) %MON extforcing_qnet_del2         =   8.3190743582589E+00
(PID.TID 0000.0001) %MON extforcing_qsw_max           =  -1.5340605163574E+02
(PID.TID 0000.0001) %MON extforcing_qsw_min           =  -3.1156558227539E+02
(PID.TID 0000.0001) %MON extforcing_qsw_mean          =  -2.4622679656805E+02
(PID.TID 0000.0001) %MON extforcing_qsw_sd            =   4.1213103000011E+01
(PID.TID 0000.0001) %MON extforcing_qsw_del2          =   6.0288217854617E+00
(PID.TID 0000.0001) %MON extforcing_empmr_max         =   6.3069694468254E-05
(PID.TID 0000.0001) %MON extforcing_empmr_min         =   1.2103353894055E-05
(PID.TID 0000.0001) %MON extforcing_empmr_mean        =   3.6742450533127E-05
(PID.TID 0000.0001) %MON extforcing_empmr_sd          =   1.2117638039994E-05
(PID.TID 0000.0001) %MON extforcing_empmr_del2        =   2.2638034320330E-06
(PID.TID 0000.0001) %MON advcfl_uvel_max              =   0.0000000000000E+00
(PID.TID 0000.0001) %MON advcfl_vvel_max              =   0.0000000000000E+00
(PID.TID 0000.0001) %MON advcfl_wvel_max              =   0.0000000000000E+00
(PID.TID 0000.0001) %MON advcfl_W_hf_max              =   0.0000000000000E+00
(PID.TID 0000.0001) %MON pe_b_mean                    =   0.0000000000000E+00
(PID.TID 0000.0001) %MON ke_max                       =   0.0000000000000E+00
(PID.TID 0000.0001) %MON ke_mean                      =   0.0000000000000E+00
(PID.TID 0000.0001) %MON ke_vol                       =   3.6027486600263E+16
(PID.TID 0000.0001) %MON vort_r_min                   =   0.0000000000000E+00
(PID.TID 0000.0001) %MON vort_r_max                   =   0.0000000000000E+00
(PID.TID 0000.0001) %MON vort_a_mean                  =   6.1944475191297E-05
(PID.TID 0000.0001) %MON vort_a_sd                    =   1.9197697516420E-05
(PID.TID 0000.0001) %MON vort_p_mean                  =   7.7881882182936E-05
(PID.TID 0000.0001) %MON vort_p_sd                    =   5.6365002634549E-05
(PID.TID 0000.0001) %MON surfExpan_theta_mean         =   0.0000000000000E+00
(PID.TID 0000.0001) %MON surfExpan_salt_mean          =   0.0000000000000E+00
(PID.TID 0000.0001) // =======================================================
(PID.TID 0000.0001) // End MONITOR dynamic field statistics
(PID.TID 0000.0001) // =======================================================
S/R EXTERNAL_FIELDS_LOAD: Reading new data:    1    2         0  2.160000000000E+04
(PID.TID 0000.0001)  MDS_READ_FIELD: opening global file: kf_tx
(PID.TID 0000.0001)  MDS_READ_FIELD: opening global file: kf_tx
(PID.TID 0000.0001)  MDS_READ_FIELD: opening global file: kf_ty
(PID.TID 0000.0001)  MDS_READ_FIELD: opening global file: kf_ty
(PID.TID 0000.0001)  MDS_READ_FIELD: opening global file: kf_qnet
(PID.TID 0000.0001)  MDS_READ_FIELD: opening global file: kf_qnet
(PID.TID 0000.0001)  MDS_READ_FIELD: opening global file: kf_empmr
(PID.TID 0000.0001)  MDS_READ_FIELD: opening global file: kf_empmr
(PID.TID 0000.0001)  MDS_READ_FIELD: opening global file: kf_sst
(PID.TID 0000.0001)  MDS_READ_FIELD: opening global file: kf_sst
(PID.TID 0000.0001)  MDS_READ_FIELD: opening global file: kf_sss
(PID.TID 0000.0001)  MDS_READ_FIELD: opening global file: kf_sss
(PID.TID 0000.0001)  MDS_READ_FIELD: opening global file: kf_sw
(PID.TID 0000.0001)  MDS_READ_FIELD: opening global file: kf_sw
time,SST,SSS,fu,fv,Q,E-P,i0,i1,a,b =   2.1600E+04  0.0000E+00  0.0000E+00  0.0000E+00  0.0000E+00  0.0000E+00  0.0000E+00     1     2  0.0000E+00  1.0000E+00
time,fu0,fu1,fu =   2.1600E+04  0.0000E+00  0.0000E+00  0.0000E+00  0.000000000000000E+00  1.000000000000000E+00
 cg2d: Sum(rhs),rhsMax =  -1.77635683940025E-15  4.50737656360044E-01
(PID.TID 0000.0001)                    cg2d_init_res =    3.97960747080088E+00
(PID.TID 0000.0001)                       cg2d_iters =    50
(PID.TID 0000.0001)                         cg2d_res =    7.13208989204053E-14
(PID.TID 0000.0001) // =======================================================
(PID.TID 0000.0001) // Begin MONITOR dynamic field statistics
(PID.TID 0000.0001) // =======================================================
(PID.TID 0000.0001) %MON time_tsnumber                =                     1
(PID.TID 0000.0001) %MON time_secondsf                =   2.5200000000000E+04
(PID.TID 0000.0001) %MON dynstat_eta_max              =   7.9831848646388E-02
(PID.TID 0000.0001) %MON dynstat_eta_min              =  -1.0327152670087E-01
(PID.TID 0000.0001) %MON dynstat_eta_mean             =   1.3787419666629E-18
(PID.TID 0000.0001) %MON dynstat_eta_sd               =   3.4047408239500E-02
(PID.TID 0000.0001) %MON dynstat_eta_del2             =   4.0984734777375E-03
(PID.TID 0000.0001) %MON dynstat_uvel_max             =   5.3767310065446E-02
(PID.TID 0000.0001) %MON dynstat_uvel_min             =  -4.2462040507250E-02
(PID.TID 0000.0001) %MON dynstat_uvel_mean            =  -1.7162005942187E-03
(PID.TID 0000.0001) %MON dynstat_uvel_sd              =   1.4714462723193E-03
(PID.TID 0000.0001) %MON dynstat_uvel_del2            =   4.3032581260394E-04
(PID.TID 0000.0001) %MON dynstat_vvel_max             =   1.0121841090179E-02
(PID.TID 0000.0001) %MON dynstat_vvel_min             =  -2.9296628090307E-02
(PID.TID 0000.0001) %MON dynstat_vvel_mean            =  -1.2965381764512E-04
(PID.TID 0000.0001) %MON dynstat_vvel_sd              =   1.6348907706678E-03
(PID.TID 0000.0001) %MON dynstat_vvel_del2            =   5.9219754533458E-04
(PID.TID 0000.0001) %MON dynstat_wvel_max             =   4.7438450209645E-05
(PID.TID 0000.0001) %MON dynstat_wvel_min             =  -9.2458472497102E-05
(PID.TID 0000.0001) %MON dynstat_wvel_mean            =   9.0038297538675E-22
(PID.TID 0000.0001) %MON dynstat_wvel_sd              =   1.2602961720835E-05
(PID.TID 0000.0001) %MON dynstat_wvel_del2            =   3.1493539806517E-06
(PID.TID 0000.0001) %MON dynstat_theta_max            =   2.6076654048010E+01
(PID.TID 0000.0001) %MON dynstat_theta_min            =   1.8064390104771E+00
(PID.TID 0000.0001) %MON dynstat_theta_mean           =   5.4784296546519E+00
(PID.TID 0000.0001) %MON dynstat_theta_sd             =   4.5924594548543E+00
(PID.TID 0000.0001) %MON dynstat_theta_del2           =   5.0903686392352E-02
(PID.TID 0000.0001) %MON dynstat_salt_max             =   3.7400751159650E+01
(PID.TID 0000.0001) %MON dynstat_salt_min             =   3.4726771995658E+01
(PID.TID 0000.0001) %MON dynstat_salt_mean            =   3.5157556923008E+01
(PID.TID 0000.0001) %MON dynstat_salt_sd              =   4.1377676512749E-01
(PID.TID 0000.0001) %MON dynstat_salt_del2            =   1.2629962839116E-02
(PID.TID 0000.0001) %MON extforcing_qnet_max          =   2.5772109985352E+01
(PID.TID 0000.0001) %MON extforcing_qnet_min          =  -1.7793640136719E+02
(PID.TID 0000.0001) %MON extforcing_qnet_mean         =  -8.6225629002468E+01
(PID.TID 0000.0001) %MON extforcing_qnet_sd           =   5.2166051016192E+01
(PID.TID 0000.0001) %MON extforcing_qnet_del2         =   8.3190743582589E+00
(PID.TID 0000.0001) %MON extforcing_qsw_max           =  -1.5340605163574E+02
(PID.TID 0000.0001) %MON extforcing_qsw_min           =  -3.1156558227539E+02
(PID.TID 0000.0001) %MON extforcing_qsw_mean          =  -2.4622679656805E+02
(PID.TID 0000.0001) %MON extforcing_qsw_sd            =   4.1213103000011E+01
(PID.TID 0000.0001) %MON extforcing_qsw_del2          =   6.0288217854617E+00
(PID.TID 0000.0001) %MON extforcing_empmr_max         =   6.3069694468254E-05
(PID.TID 0000.0001) %MON extforcing_empmr_min         =   1.2103353894055E-05
(PID.TID 0000.0001) %MON extforcing_empmr_mean        =   3.6742450533127E-05
(PID.TID 0000.0001) %MON extforcing_empmr_sd          =   1.2117638039994E-05
(PID.TID 0000.0001) %MON extforcing_empmr_del2        =   2.2638034320330E-06
(PID.TID 0000.0001) %MON advcfl_uvel_max              =   1.1201377154162E-03
(PID.TID 0000.0001) %MON advcfl_vvel_max              =   4.7432208137680E-04
(PID.TID 0000.0001) %MON advcfl_wvel_max              =   2.0654305340174E-02
(PID.TID 0000.0001) %MON advcfl_W_hf_max              =   2.0528100592565E-02
(PID.TID 0000.0001) %MON pe_b_mean                    =   1.3973339919140E-06
(PID.TID 0000.0001) %MON ke_max                       =   9.5708186163306E-04
(PID.TID 0000.0001) %MON ke_mean                      =   3.4825599599786E-06
(PID.TID 0000.0001) %MON ke_vol                       =   3.6027486600263E+16
(PID.TID 0000.0001) %MON vort_r_min                   =  -2.2171341637499E-07
(PID.TID 0000.0001) %MON vort_r_max                   =   2.4532521669418E-07
(PID.TID 0000.0001) %MON vort_a_mean                  =   6.1944475191297E-05
(PID.TID 0000.0001) %MON vort_a_sd                    =   1.9196261613388E-05
(PID.TID 0000.0001) %MON vort_p_mean                  =   7.7881882182936E-05
(PID.TID 0000.0001) %MON vort_p_sd                    =   5.6362018534487E-05
(PID.TID 0000.0001) %MON surfExpan_theta_mean         =   7.5497240838626E-06
(PID.TID 0000.0001) %MON surfExpan_salt_mean          =   2.1210377433516E-06
(PID.TID 0000.0001) // =======================================================
(PID.TID 0000.0001) // End MONITOR dynamic field statistics
(PID.TID 0000.0001) // =======================================================
time,SST,SSS,fu,fv,Q,E-P,i0,i1,a,b =   2.5200E+04  0.0000E+00  0.0000E+00  0.0000E+00  0.0000E+00  0.0000E+00  0.0000E+00     1     2  8.3333E-02  9.1667E-01
time,fu0,fu1,fu =   2.5200E+04  0.0000E+00  0.0000E+00  0.0000E+00  8.333333333333333E-02  9.166666666666666E-01
 cg2d: Sum(rhs),rhsMax =  -2.66453525910038E-15  5.55580894610489E-01
(PID.TID 0000.0001)                    cg2d_init_res =    9.18792761087932E-01
(PID.TID 0000.0001)                       cg2d_iters =    47
(PID.TID 0000.0001)                         cg2d_res =    7.05573783574916E-14
(PID.TID 0000.0001) // =======================================================
(PID.TID 0000.0001) // Begin MONITOR dynamic field statistics
(PID.TID 0000.0001) // =======================================================
(PID.TID 0000.0001) %MON time_tsnumber                =                     2
(PID.TID 0000.0001) %MON time_secondsf                =   2.8800000000000E+04
(PID.TID 0000.0001) %MON dynstat_eta_max              =   1.4747680131802E-01
(PID.TID 0000.0001) %MON dynstat_eta_min              =  -1.8208426969297E-01
(PID.TID 0000.0001) %MON dynstat_eta_mean             =  -1.1029935733303E-17
(PID.TID 0000.0001) %MON dynstat_eta_sd               =   6.7128136846704E-02
(PID.TID 0000.0001) %MON dynstat_eta_del2             =   4.6952457507889E-03
(PID.TID 0000.0001) %MON dynstat_uvel_max             =   1.0408433259544E-01
(PID.TID 0000.0001) %MON dynstat_uvel_min             =  -7.3099133375835E-02
(PID.TID 0000.0001) %MON dynstat_uvel_mean            =  -2.1353969477337E-03
(PID.TID 0000.0001) %MON dynstat_uvel_sd              =   2.6836129123851E-03
(PID.TID 0000.0001) %MON dynstat_uvel_del2            =   8.2509180721564E-04
(PID.TID 0000.0001) %MON dynstat_vvel_max             =   2.1344592465604E-02
(PID.TID 0000.0001) %MON dynstat_vvel_min             =  -5.3407810964797E-02
(PID.TID 0000.0001) %MON dynstat_vvel_mean            =  -2.0984182031905E-04
(PID.TID 0000.0001) %MON dynstat_vvel_sd              =   2.9876053797004E-03
(PID.TID 0000.0001) %MON dynstat_vvel_del2            =   1.1679607571079E-03
(PID.TID 0000.0001) %MON dynstat_wvel_max             =   7.5984121267538E-05
(PID.TID 0000.0001) %MON dynstat_wvel_min             =  -1.4301003079478E-04
(PID.TID 0000.0001) %MON dynstat_wvel_mean            =   3.6015319015470E-21
(PID.TID 0000.0001) %MON dynstat_wvel_sd              =   1.9442451173701E-05
(PID.TID 0000.0001) %MON dynstat_wvel_del2            =   4.5241564661363E-06
(PID.TID 0000.0001) %MON dynstat_theta_max            =   2.6075142164129E+01
(PID.TID 0000.0001) %MON dynstat_theta_min            =   1.8064390241864E+00
(PID.TID 0000.0001) %MON dynstat_theta_mean           =   5.4784377028355E+00
(PID.TID 0000.0001) %MON dynstat_theta_sd             =   4.5924854556100E+00
(PID.TID 0000.0001) %MON dynstat_theta_del2           =   5.0854263625060E-02
(PID.TID 0000.0001) %MON dynstat_salt_max             =   3.7400673032965E+01
(PID.TID 0000.0001) %MON dynstat_salt_min             =   3.4726779359477E+01
(PID.TID 0000.0001) %MON dynstat_salt_mean            =   3.5157555144761E+01
(PID.TID 0000.0001) %MON dynstat_salt_sd              =   4.1376901300912E-01
(PID.TID 0000.0001) %MON dynstat_salt_del2            =   1.2629248843981E-02
(PID.TID 0000.0001) %MON extforcing_qnet_max          =   2.6062016805013E+01
(PID.TID 0000.0001) %MON extforcing_qnet_min          =  -1.7659355545044E+02
(PID.TID 0000.0001) %MON extforcing_qnet_mean         =  -8.5257431754752E+01
(PID.TID 0000.0001) %MON extforcing_qnet_sd           =   5.2007111613118E+01
(PID.TID 0000.0001) %MON extforcing_qnet_del2         =   8.2510235180408E+00
(PID.TID 0000.0001) %MON extforcing_qsw_max           =  -1.5255920283000E+02
(PID.TID 0000.0001) %MON extforcing_qsw_min           =  -3.1216041564941E+02
(PID.TID 0000.0001) %MON extforcing_qsw_mean          =  -2.4650639625986E+02
(PID.TID 0000.0001) %MON extforcing_qsw_sd            =   4.1246809110616E+01
(PID.TID 0000.0001) %MON extforcing_qsw_del2          =   5.9979608438677E+00
(PID.TID 0000.0001) %MON extforcing_empmr_max         =   6.3481127135508E-05
(PID.TID 0000.0001) %MON extforcing_empmr_min         =   1.2253066312236E-05
(PID.TID 0000.0001) %MON extforcing_empmr_mean        =   3.7131810081233E-05
(PID.TID 0000.0001) %MON extforcing_empmr_sd          =   1.2044395715904E-05
(PID.TID 0000.0001) %MON extforcing_empmr_del2        =   2.2540989364255E-06
(PID.TID 0000.0001) %MON advcfl_uvel_max              =   2.1683953759666E-03
(PID.TID 0000.0001) %MON advcfl_vvel_max              =   8.6469009267939E-04
(PID.TID 0000.0001) %MON advcfl_wvel_max              =   1.6837673869871E-02
(PID.TID 0000.0001) %MON advcfl_W_hf_max              =   2.0933154553304E-02
(PID.TID 0000.0001) %MON pe_b_mean                    =   5.4317690306019E-06
(PID.TID 0000.0001) %MON ke_max                       =   3.1042312169090E-03
(PID.TID 0000.0001) %MON ke_mean                      =   9.2359686988634E-06
(PID.TID 0000.0001) %MON ke_vol                       =   3.6027486600263E+16
(PID.TID 0000.0001) %MON vort_r_min                   =  -4.1503261019045E-07
(PID.TID 0000.0001) %MON vort_r_max                   =   4.7490773515289E-07
(PID.TID 0000.0001) %MON vort_a_mean                  =   6.1944475191297E-05
(PID.TID 0000.0001) %MON vort_a_sd                    =   1.9195918679551E-05
(PID.TID 0000.0001) %MON vort_p_mean                  =   7.7881882182936E-05
(PID.TID 0000.0001) %MON vort_p_sd                    =   5.6361055005952E-05
(PID.TID 0000.0001) %MON surfExpan_theta_mean         =   9.8711157317598E-06
(PID.TID 0000.0001) %MON surfExpan_salt_mean          =   2.1052665134737E-06
(PID.TID 0000.0001) // =======================================================
(PID.TID 0000.0001) // End MONITOR dynamic field statistics
(PID.TID 0000.0001) // =======================================================
time,SST,SSS,fu,fv,Q,E-P,i0,i1,a,b =   2.8800E+04  0.0000E+00  0.0000E+00  0.0000E+00  0.0000E+00  0.0000E+00  0.0000E+00     1     2  1.6667E-01  8.3333E-01
time,fu0,fu1,fu =   2.8800E+04  0.0000E+00  0.0000E+00  0.0000E+00  1.666666666666667E-01  8.333333333333334E-01
 cg2d: Sum(rhs),rhsMax =   7.10542735760100E-15  5.83480921872536E-01
(PID.TID 0000.0001)                    cg2d_init_res =    5.49843676091278E-01
(PID.TID 0000.0001)                       cg2d_iters =    46
(PID.TID 0000.0001)                         cg2d_res =    7.64356929532317E-14
(PID.TID 0000.0001) // =======================================================
(PID.TID 0000.0001) // Begin MONITOR dynamic field statistics
(PID.TID 0000.0001) // =======================================================
(PID.TID 0000.0001) %MON time_tsnumber                =                     3
(PID.TID 0000.0001) %MON time_secondsf                =   3.2400000000000E+04
(PID.TID 0000.0001) %MON dynstat_eta_max              =   1.8595228880969E-01
(PID.TID 0000.0001) %MON dynstat_eta_min              =  -2.3829516686020E-01
(PID.TID 0000.0001) %MON dynstat_eta_mean             =   0.0000000000000E+00
(PID.TID 0000.0001) %MON dynstat_eta_sd               =   9.1327140238668E-02
(PID.TID 0000.0001) %MON dynstat_eta_del2             =   4.4580101706361E-03
(PID.TID 0000.0001) %MON dynstat_uvel_max             =   1.4697163607684E-01
(PID.TID 0000.0001) %MON dynstat_uvel_min             =  -9.6705453947139E-02
(PID.TID 0000.0001) %MON dynstat_uvel_mean            =  -1.6505300441255E-03
(PID.TID 0000.0001) %MON dynstat_uvel_sd              =   3.7386508746306E-03
(PID.TID 0000.0001) %MON dynstat_uvel_del2            =   1.2134936363371E-03
(PID.TID 0000.0001) %MON dynstat_vvel_max             =   3.1359567871411E-02
(PID.TID 0000.0001) %MON dynstat_vvel_min             =  -7.2709700191214E-02
(PID.TID 0000.0001) %MON dynstat_vvel_mean            =  -4.2591051091346E-04
(PID.TID 0000.0001) %MON dynstat_vvel_sd              =   4.2064571253714E-03
(PID.TID 0000.0001) %MON dynstat_vvel_del2            =   1.6594734942251E-03
(PID.TID 0000.0001) %MON dynstat_wvel_max             =   9.8737538762836E-05
(PID.TID 0000.0001) %MON dynstat_wvel_min             =  -1.7306547540624E-04
(PID.TID 0000.0001) %MON dynstat_wvel_mean            =   3.6015319015470E-21
(PID.TID 0000.0001) %MON dynstat_wvel_sd              =   2.5199775056442E-05
(PID.TID 0000.0001) %MON dynstat_wvel_del2            =   6.0639291554381E-06
(PID.TID 0000.0001) %MON dynstat_theta_max            =   2.6073527663061E+01
(PID.TID 0000.0001) %MON dynstat_theta_min            =   1.8064395683377E+00
(PID.TID 0000.0001) %MON dynstat_theta_mean           =   5.4784462567170E+00
(PID.TID 0000.0001) %MON dynstat_theta_sd             =   4.5925125250643E+00
(PID.TID 0000.0001) %MON dynstat_theta_del2           =   5.0828120032671E-02
(PID.TID 0000.0001) %MON dynstat_salt_max             =   3.7400692070076E+01
(PID.TID 0000.0001) %MON dynstat_salt_min             =   3.4726785376275E+01
(PID.TID 0000.0001) %MON dynstat_salt_mean            =   3.5157554524410E+01
(PID.TID 0000.0001) %MON dynstat_salt_sd              =   4.1376546725157E-01
(PID.TID 0000.0001) %MON dynstat_salt_del2            =   1.2629078950895E-02
(PID.TID 0000.0001) %MON extforcing_qnet_max          =   2.6353609720866E+01
(PID.TID 0000.0001) %MON extforcing_qnet_min          =  -1.7525070953369E+02
(PID.TID 0000.0001) %MON extforcing_qnet_mean         =  -8.4289234507036E+01
(PID.TID 0000.0001) %MON extforcing_qnet_sd           =   5.1878062558190E+01
(PID.TID 0000.0001) %MON extforcing_qnet_del2         =   8.1954923889711E+00
(PID.TID 0000.0001) %MON extforcing_qsw_max           =  -1.5171235402425E+02
(PID.TID 0000.0001) %MON extforcing_qsw_min           =  -3.1275524902344E+02
(PID.TID 0000.0001) %MON extforcing_qsw_mean          =  -2.4678599595167E+02
(PID.TID 0000.0001) %MON extforcing_qsw_sd            =   4.1303728041958E+01
(PID.TID 0000.0001) %MON extforcing_qsw_del2          =   5.9685850973395E+00
(PID.TID 0000.0001) %MON extforcing_empmr_max         =   6.3953881584903E-05
(PID.TID 0000.0001) %MON extforcing_empmr_min         =   1.2402778730417E-05
(PID.TID 0000.0001) %MON extforcing_empmr_mean        =   3.7521169629339E-05
(PID.TID 0000.0001) %MON extforcing_empmr_sd          =   1.1981030382910E-05
(PID.TID 0000.0001) %MON extforcing_empmr_del2        =   2.2503087950644E-06
(PID.TID 0000.0001) %MON advcfl_uvel_max              =   3.0618692373806E-03
(PID.TID 0000.0001) %MON advcfl_vvel_max              =   1.1771940519800E-03
(PID.TID 0000.0001) %MON advcfl_wvel_max              =   1.4131636018713E-02
(PID.TID 0000.0001) %MON advcfl_W_hf_max              =   1.9921367445522E-02
(PID.TID 0000.0001) %MON pe_b_mean                    =   1.0053836656545E-05
(PID.TID 0000.0001) %MON ke_max                       =   6.2754712422948E-03
(PID.TID 0000.0001) %MON ke_mean                      =   1.5372248008304E-05
(PID.TID 0000.0001) %MON ke_vol                       =   3.6027486600263E+16
(PID.TID 0000.0001) %MON vort_r_min                   =  -5.5427369035317E-07
(PID.TID 0000.0001) %MON vort_r_max                   =   6.7059052097939E-07
(PID.TID 0000.0001) %MON vort_a_mean                  =   6.1944475191297E-05
(PID.TID 0000.0001) %MON vort_a_sd                    =   1.9196332745561E-05
(PID.TID 0000.0001) %MON vort_p_mean                  =   7.7881882182936E-05
(PID.TID 0000.0001) %MON vort_p_sd                    =   5.6361745959975E-05
(PID.TID 0000.0001) %MON surfExpan_theta_mean         =   9.4603720373979E-06
(PID.TID 0000.0001) %MON surfExpan_salt_mean          =   1.1903948287863E-06
(PID.TID 0000.0001) // =======================================================
(PID.TID 0000.0001) // End MONITOR dynamic field statistics
(PID.TID 0000.0001) // =======================================================
time,SST,SSS,fu,fv,Q,E-P,i0,i1,a,b =   3.2400E+04  0.0000E+00  0.0000E+00  0.0000E+00  0.0000E+00  0.0000E+00  0.0000E+00     1     2  2.5000E-01  7.5000E-01
time,fu0,fu1,fu =   3.2400E+04  0.0000E+00  0.0000E+00  0.0000E+00  2.500000000000000E-01  7.500000000000000E-01
 cg2d: Sum(rhs),rhsMax =   0.00000000000000E+00  6.07089382934402E-01
(PID.TID 0000.0001)                    cg2d_init_res =    2.97163864710002E-01
(PID.TID 0000.0001)                       cg2d_iters =    47
(PID.TID 0000.0001)                         cg2d_res =    5.03566263765741E-14
(PID.TID 0000.0001) // =======================================================
(PID.TID 0000.0001) // Begin MONITOR dynamic field statistics
(PID.TID 0000.0001) // =======================================================
(PID.TID 0000.0001) %MON time_tsnumber                =                     4
(PID.TID 0000.0001) %MON time_secondsf                =   3.6000000000000E+04
(PID.TID 0000.0001) %MON dynstat_eta_max              =   1.9627231023404E-01
(PID.TID 0000.0001) %MON dynstat_eta_min              =  -2.7139002271801E-01
(PID.TID 0000.0001) %MON dynstat_eta_mean             =   1.6544903599955E-17
(PID.TID 0000.0001) %MON dynstat_eta_sd               =   1.0331227529953E-01
(PID.TID 0000.0001) %MON dynstat_eta_del2             =   4.4226158707357E-03
(PID.TID 0000.0001) %MON dynstat_uvel_max             =   1.7730274269059E-01
(PID.TID 0000.0001) %MON dynstat_uvel_min             =  -1.1582956233374E-01
(PID.TID 0000.0001) %MON dynstat_uvel_mean            =  -8.1543734192234E-04
(PID.TID 0000.0001) %MON dynstat_uvel_sd              =   4.7555929331053E-03
(PID.TID 0000.0001) %MON dynstat_uvel_del2            =   1.6002984560359E-03
(PID.TID 0000.0001) %MON dynstat_vvel_max             =   3.9314883686863E-02
(PID.TID 0000.0001) %MON dynstat_vvel_min             =  -9.0546460288327E-02
(PID.TID 0000.0001) %MON dynstat_vvel_mean            =  -6.6445373966487E-04
(PID.TID 0000.0001) %MON dynstat_vvel_sd              =   5.2286902223931E-03
(PID.TID 0000.0001) %MON dynstat_vvel_del2            =   2.0506461020761E-03
(PID.TID 0000.0001) %MON dynstat_wvel_max             =   1.1374309559838E-04
(PID.TID 0000.0001) %MON dynstat_wvel_min             =  -1.8464100039352E-04
(PID.TID 0000.0001) %MON dynstat_wvel_mean            =  -2.2509574384669E-22
(PID.TID 0000.0001) %MON dynstat_wvel_sd              =   2.9997498981267E-05
(PID.TID 0000.0001) %MON dynstat_wvel_del2            =   7.3590671304155E-06
(PID.TID 0000.0001) %MON dynstat_theta_max            =   2.6071812802111E+01
(PID.TID 0000.0001) %MON dynstat_theta_min            =   1.8064406152496E+00
(PID.TID 0000.0001) %MON dynstat_theta_mean           =   5.4784564072855E+00
(PID.TID 0000.0001) %MON dynstat_theta_sd             =   4.5925444975206E+00
(PID.TID 0000.0001) %MON dynstat_theta_del2           =   5.0797583614191E-02
(PID.TID 0000.0001) %MON dynstat_salt_max             =   3.7400960445590E+01
(PID.TID 0000.0001) %MON dynstat_salt_min             =   3.4726790540921E+01
(PID.TID 0000.0001) %MON dynstat_salt_mean            =   3.5157555200452E+01
(PID.TID 0000.0001) %MON dynstat_salt_sd              =   4.1376635840932E-01
(PID.TID 0000.0001) %MON dynstat_salt_del2            =   1.2628702255798E-02
(PID.TID 0000.0001) %MON extforcing_qnet_max          =   2.7849277496338E+01
(PID.TID 0000.0001) %MON extforcing_qnet_min          =  -1.7390786361694E+02
(PID.TID 0000.0001) %MON extforcing_qnet_mean         =  -8.3321037259321E+01
(PID.TID 0000.0001) %MON extforcing_qnet_sd           =   5.1779127338922E+01
(PID.TID 0000.0001) %MON extforcing_qnet_del2         =   8.1563966591370E+00
(PID.TID 0000.0001) %MON extforcing_qsw_max           =  -1.5086550521851E+02
(PID.TID 0000.0001) %MON extforcing_qsw_min           =  -3.1335008239746E+02
(PID.TID 0000.0001) %MON extforcing_qsw_mean          =  -2.4706559564349E+02
(PID.TID 0000.0001) %MON extforcing_qsw_sd            =   4.1383764013908E+01
(PID.TID 0000.0001) %MON extforcing_qsw_del2          =   5.9498440314984E+00
(PID.TID 0000.0001) %MON extforcing_empmr_max         =   6.4426636034298E-05
(PID.TID 0000.0001) %MON extforcing_empmr_min         =   1.2552491148599E-05
(PID.TID 0000.0001) %MON extforcing_empmr_mean        =   3.7910529177446E-05
(PID.TID 0000.0001) %MON extforcing_empmr_sd          =   1.1927699455179E-05
(PID.TID 0000.0001) %MON extforcing_empmr_del2        =   2.2496353002382E-06
(PID.TID 0000.0001) %MON advcfl_uvel_max              =   3.6937590683396E-03
(PID.TID 0000.0001) %MON advcfl_vvel_max              =   1.4659770869492E-03
(PID.TID 0000.0001) %MON advcfl_wvel_max              =   8.8164550804682E-03
(PID.TID 0000.0001) %MON advcfl_W_hf_max              =   1.4095940553188E-02
(PID.TID 0000.0001) %MON pe_b_mean                    =   1.2865775247676E-05
(PID.TID 0000.0001) %MON ke_max                       =   9.3262367544977E-03
(PID.TID 0000.0001) %MON ke_mean                      =   2.2685305796311E-05
(PID.TID 0000.0001) %MON ke_vol                       =   3.6027486600263E+16
(PID.TID 0000.0001) %MON vort_r_min                   =  -6.3439319553676E-07
(PID.TID 0000.0001) %MON vort_r_max                   =   8.0898288789408E-07
(PID.TID 0000.0001) %MON vort_a_mean                  =   6.1944475191297E-05
(PID.TID 0000.0001) %MON vort_a_sd                    =   1.9197038902951E-05
(PID.TID 0000.0001) %MON vort_p_mean                  =   7.7881882182936E-05
(PID.TID 0000.0001) %MON vort_p_sd                    =   5.6363284389966E-05
(PID.TID 0000.0001) %MON surfExpan_theta_mean         =   7.8271896314401E-06
(PID.TID 0000.0001) %MON surfExpan_salt_mean          =   2.1632233902824E-07
(PID.TID 0000.0001) // =======================================================
(PID.TID 0000.0001) // End MONITOR dynamic field statistics
(PID.TID 0000.0001) // =======================================================
time,SST,SSS,fu,fv,Q,E-P,i0,i1,a,b =   3.6000E+04  0.0000E+00  0.0000E+00  0.0000E+00  0.0000E+00  0.0000E+00  0.0000E+00     1     2  3.3333E-01  6.6667E-01
time,fu0,fu1,fu =   3.6000E+04  0.0000E+00  0.0000E+00  0.0000E+00  3.333333333333333E-01  6.666666666666667E-01
 cg2d: Sum(rhs),rhsMax =   1.77635683940025E-15  6.21143979574871E-01
(PID.TID 0000.0001)                    cg2d_init_res =    2.45540794859852E-01
(PID.TID 0000.0001)                       cg2d_iters =    47
(PID.TID 0000.0001)                         cg2d_res =    3.93201525624490E-14
(PID.TID 0000.0001) // =======================================================
(PID.TID 0000.0001) // Begin MONITOR dynamic field statistics
(PID.TID 0000.0001) // =======================================================
(PID.TID 0000.0001) %MON time_tsnumber                =                     5
(PID.TID 0000.0001) %MON time_secondsf                =   3.9600000000000E+04
(PID.TID 0000.0001) %MON dynstat_eta_max              =   1.8812326782255E-01
(PID.TID 0000.0001) %MON dynstat_eta_min              =  -2.8341184520456E-01
(PID.TID 0000.0001) %MON dynstat_eta_mean             =   0.0000000000000E+00
(PID.TID 0000.0001) %MON dynstat_eta_sd               =   1.0493859673094E-01
(PID.TID 0000.0001) %MON dynstat_eta_del2             =   4.5212698260148E-03
(PID.TID 0000.0001) %MON dynstat_uvel_max             =   1.7906001839863E-01
(PID.TID 0000.0001) %MON dynstat_uvel_min             =  -1.3243693297147E-01
(PID.TID 0000.0001) %MON dynstat_uvel_mean            =  -5.2546576832884E-05
(PID.TID 0000.0001) %MON dynstat_uvel_sd              =   5.7446908759212E-03
(PID.TID 0000.0001) %MON dynstat_uvel_del2            =   1.9818423774985E-03
(PID.TID 0000.0001) %MON dynstat_vvel_max             =   4.4823662205227E-02
(PID.TID 0000.0001) %MON dynstat_vvel_min             =  -1.0866419314577E-01
(PID.TID 0000.0001) %MON dynstat_vvel_mean            =  -7.6634902596822E-04
(PID.TID 0000.0001) %MON dynstat_vvel_sd              =   6.0249099126332E-03
(PID.TID 0000.0001) %MON dynstat_vvel_del2            =   2.3262355912088E-03
(PID.TID 0000.0001) %MON dynstat_wvel_max             =   1.2005647249687E-04
(PID.TID 0000.0001) %MON dynstat_wvel_min             =  -1.7855357421970E-04
(PID.TID 0000.0001) %MON dynstat_wvel_mean            =   7.8783510346340E-22
(PID.TID 0000.0001) %MON dynstat_wvel_sd              =   3.3536209616986E-05
(PID.TID 0000.0001) %MON dynstat_wvel_del2            =   8.2466420860890E-06
(PID.TID 0000.0001) %MON dynstat_theta_max            =   2.6070067566650E+01
(PID.TID 0000.0001) %MON dynstat_theta_min            =   1.8064422271982E+00
(PID.TID 0000.0001) %MON dynstat_theta_mean           =   5.4784684366446E+00
(PID.TID 0000.0001) %MON dynstat_theta_sd             =   4.5925826499974E+00
(PID.TID 0000.0001) %MON dynstat_theta_del2           =   5.0765563396416E-02
(PID.TID 0000.0001) %MON dynstat_salt_max             =   3.7401224066294E+01
(PID.TID 0000.0001) %MON dynstat_salt_min             =   3.4726794346571E+01
(PID.TID 0000.0001) %MON dynstat_salt_mean            =   3.5157556779621E+01
(PID.TID 0000.0001) %MON dynstat_salt_sd              =   4.1377004286960E-01
(PID.TID 0000.0001) %MON dynstat_salt_del2            =   1.2628615219903E-02
(PID.TID 0000.0001) %MON extforcing_qnet_max          =   2.9530278523763E+01
(PID.TID 0000.0001) %MON extforcing_qnet_min          =  -1.7256501770020E+02
(PID.TID 0000.0001) %MON extforcing_qnet_mean         =  -8.2352840011605E+01
(PID.TID 0000.0001) %MON extforcing_qnet_sd           =   5.1710478801745E+01
(PID.TID 0000.0001) %MON extforcing_qnet_del2         =   8.1218630723374E+00
(PID.TID 0000.0001) %MON extforcing_qsw_max           =  -1.5001865641276E+02
(PID.TID 0000.0001) %MON extforcing_qsw_min           =  -3.1394491577148E+02
(PID.TID 0000.0001) %MON extforcing_qsw_mean          =  -2.4734519533530E+02
(PID.TID 0000.0001) %MON extforcing_qsw_sd            =   4.1486783235049E+01
(PID.TID 0000.0001) %MON extforcing_qsw_del2          =   5.9332652099810E+00
(PID.TID 0000.0001) %MON extforcing_empmr_max         =   6.4899390483693E-05
(PID.TID 0000.0001) %MON extforcing_empmr_min         =   1.2702203566780E-05
(PID.TID 0000.0001) %MON extforcing_empmr_mean        =   3.8299888725552E-05
(PID.TID 0000.0001) %MON extforcing_empmr_sd          =   1.1884538019288E-05
(PID.TID 0000.0001) %MON extforcing_empmr_del2        =   2.2496460070999E-06
(PID.TID 0000.0001) %MON advcfl_uvel_max              =   3.7303685024841E-03
(PID.TID 0000.0001) %MON advcfl_vvel_max              =   1.7593091636742E-03
(PID.TID 0000.0001) %MON advcfl_wvel_max              =   4.3018587433984E-03
(PID.TID 0000.0001) %MON advcfl_W_hf_max              =   7.5077967159422E-03
(PID.TID 0000.0001) %MON pe_b_mean                    =   1.3274024428060E-05
(PID.TID 0000.0001) %MON ke_max                       =   1.0006370037614E-02
(PID.TID 0000.0001) %MON ke_mean                      =   3.1063463721107E-05
(PID.TID 0000.0001) %MON ke_vol                       =   3.6027486600263E+16
(PID.TID 0000.0001) %MON vort_r_min                   =  -6.0173251197208E-07
(PID.TID 0000.0001) %MON vort_r_max                   =   8.1700084607988E-07
(PID.TID 0000.0001) %MON vort_a_mean                  =   6.1944475191297E-05
(PID.TID 0000.0001) %MON vort_a_sd                    =   1.9197682109884E-05
(PID.TID 0000.0001) %MON vort_p_mean                  =   7.7881882182936E-05
(PID.TID 0000.0001) %MON vort_p_sd                    =   5.6364966013298E-05
(PID.TID 0000.0001) %MON surfExpan_theta_mean         =   5.5546945992643E-06
(PID.TID 0000.0001) %MON surfExpan_salt_mean          =  -4.7548422923982E-07
(PID.TID 0000.0001) // =======================================================
(PID.TID 0000.0001) // End MONITOR dynamic field statistics
(PID.TID 0000.0001) // =======================================================
time,SST,SSS,fu,fv,Q,E-P,i0,i1,a,b =   3.9600E+04  0.0000E+00  0.0000E+00  0.0000E+00  0.0000E+00  0.0000E+00  0.0000E+00     1     2  4.1667E-01  5.8333E-01
time,fu0,fu1,fu =   3.9600E+04  0.0000E+00  0.0000E+00  0.0000E+00  4.166666666666667E-01  5.833333333333333E-01
 cg2d: Sum(rhs),rhsMax =  -1.77635683940025E-15  6.21676458829272E-01
(PID.TID 0000.0001)                    cg2d_init_res =    2.81016274439274E-01
(PID.TID 0000.0001)                       cg2d_iters =    47
(PID.TID 0000.0001)                         cg2d_res =    4.15710924858074E-14
(PID.TID 0000.0001) // =======================================================
(PID.TID 0000.0001) // Begin MONITOR dynamic field statistics
(PID.TID 0000.0001) // =======================================================
(PID.TID 0000.0001) %MON time_tsnumber                =                     6
(PID.TID 0000.0001) %MON time_secondsf                =   4.3200000000000E+04
(PID.TID 0000.0001) %MON dynstat_eta_max              =   1.8435079390562E-01
(PID.TID 0000.0001) %MON dynstat_eta_min              =  -2.7975744215266E-01
(PID.TID 0000.0001) %MON dynstat_eta_mean             =  -1.1029935733303E-17
(PID.TID 0000.0001) %MON dynstat_eta_sd               =   1.0063707899671E-01
(PID.TID 0000.0001) %MON dynstat_eta_del2             =   4.5944647634855E-03
(PID.TID 0000.0001) %MON dynstat_uvel_max             =   1.6536916872918E-01
(PID.TID 0000.0001) %MON dynstat_uvel_min             =  -1.4727344791385E-01
(PID.TID 0000.0001) %MON dynstat_uvel_mean            =   4.2995915417489E-04
(PID.TID 0000.0001) %MON dynstat_uvel_sd              =   6.6714487047202E-03
(PID.TID 0000.0001) %MON dynstat_uvel_del2            =   2.3476285491087E-03
(PID.TID 0000.0001) %MON dynstat_vvel_max             =   4.7607709411782E-02
(PID.TID 0000.0001) %MON dynstat_vvel_min             =  -1.2111554251591E-01
(PID.TID 0000.0001) %MON dynstat_vvel_mean            =  -6.5907414769224E-04
(PID.TID 0000.0001) %MON dynstat_vvel_sd              =   6.5976904213288E-03
(PID.TID 0000.0001) %MON dynstat_vvel_del2            =   2.4774403409966E-03
(PID.TID 0000.0001) %MON dynstat_wvel_max             =   1.3288966888376E-04
(PID.TID 0000.0001) %MON dynstat_wvel_min             =  -1.5753918403888E-04
(PID.TID 0000.0001) %MON dynstat_wvel_mean            =   6.7528723154006E-22
(PID.TID 0000.0001) %MON dynstat_wvel_sd              =   3.5672461731887E-05
(PID.TID 0000.0001) %MON dynstat_wvel_del2            =   8.7010470289873E-06
(PID.TID 0000.0001) %MON dynstat_theta_max            =   2.6075021815394E+01
(PID.TID 0000.0001) %MON dynstat_theta_min            =   1.8064442715262E+00
(PID.TID 0000.0001) %MON dynstat_theta_mean           =   5.4784826027003E+00
(PID.TID 0000.0001) %MON dynstat_theta_sd             =   4.5926282331492E+00
(PID.TID 0000.0001) %MON dynstat_theta_del2           =   5.0736845419282E-02
(PID.TID 0000.0001) %MON dynstat_salt_max             =   3.7401486054918E+01
(PID.TID 0000.0001) %MON dynstat_salt_min             =   3.4726796682486E+01
(PID.TID 0000.0001) %MON dynstat_salt_mean            =   3.5157558830998E+01
(PID.TID 0000.0001) %MON dynstat_salt_sd              =   4.1377512136295E-01
(PID.TID 0000.0001) %MON dynstat_salt_del2            =   1.2628551862412E-02
(PID.TID 0000.0001) %MON extforcing_qnet_max          =   3.2348238627116E+01
(PID.TID 0000.0001) %MON extforcing_qnet_min          =  -1.7122217178345E+02
(PID.TID 0000.0001) %MON extforcing_qnet_mean         =  -8.1384642763889E+01
(PID.TID 0000.0001) %MON extforcing_qnet_sd           =   5.1672237657836E+01
(PID.TID 0000.0001) %MON extforcing_qnet_del2         =   8.1030238077950E+00
(PID.TID 0000.0001) %MON extforcing_qsw_max           =  -1.4917180760701E+02
(PID.TID 0000.0001) %MON extforcing_qsw_min           =  -3.1453974914551E+02
(PID.TID 0000.0001) %MON extforcing_qsw_mean          =  -2.4762479502712E+02
(PID.TID 0000.0001) %MON extforcing_qsw_sd            =   4.1612615008714E+01
(PID.TID 0000.0001) %MON extforcing_qsw_del2          =   5.9226507240133E+00
(PID.TID 0000.0001) %MON extforcing_empmr_max         =   6.5372144933088E-05
(PID.TID 0000.0001) %MON extforcing_empmr_min         =   1.2851915984961E-05
(PID.TID 0000.0001) %MON extforcing_empmr_mean        =   3.8689248273659E-05
(PID.TID 0000.0001) %MON extforcing_empmr_sd          =   1.1851657181705E-05
(PID.TID 0000.0001) %MON extforcing_empmr_del2        =   2.2510213879891E-06
(PID.TID 0000.0001) %MON advcfl_uvel_max              =   3.4451461796232E-03
(PID.TID 0000.0001) %MON advcfl_vvel_max              =   1.9609006209228E-03
(PID.TID 0000.0001) %MON advcfl_wvel_max              =   6.3534516976854E-03
(PID.TID 0000.0001) %MON advcfl_W_hf_max              =   8.2818758542668E-03
(PID.TID 0000.0001) %MON pe_b_mean                    =   1.2208102118628E-05
(PID.TID 0000.0001) %MON ke_max                       =   1.0810990316198E-02
(PID.TID 0000.0001) %MON ke_mean                      =   3.9435241988997E-05
(PID.TID 0000.0001) %MON ke_vol                       =   3.6027486600263E+16
(PID.TID 0000.0001) %MON vort_r_min                   =  -5.1639858362552E-07
(PID.TID 0000.0001) %MON vort_r_max                   =   7.5453332338260E-07
(PID.TID 0000.0001) %MON vort_a_mean                  =   6.1944475191297E-05
(PID.TID 0000.0001) %MON vort_a_sd                    =   1.9198086998485E-05
(PID.TID 0000.0001) %MON vort_p_mean                  =   7.7881882182936E-05
(PID.TID 0000.0001) %MON vort_p_sd                    =   5.6366331454251E-05
(PID.TID 0000.0001) %MON surfExpan_theta_mean         =   2.9244906179039E-06
(PID.TID 0000.0001) %MON surfExpan_salt_mean          =  -7.8819462802914E-07
(PID.TID 0000.0001) // =======================================================
(PID.TID 0000.0001) // End MONITOR dynamic field statistics
(PID.TID 0000.0001) // =======================================================
time,SST,SSS,fu,fv,Q,E-P,i0,i1,a,b =   4.3200E+04  0.0000E+00  0.0000E+00  0.0000E+00  0.0000E+00  0.0000E+00  0.0000E+00     1     2  5.0000E-01  5.0000E-01
time,fu0,fu1,fu =   4.3200E+04  0.0000E+00  0.0000E+00  0.0000E+00  5.000000000000000E-01  5.000000000000000E-01
 cg2d: Sum(rhs),rhsMax =   3.55271367880050E-15  6.11135932229272E-01
(PID.TID 0000.0001)                    cg2d_init_res =    2.63091082531388E-01
(PID.TID 0000.0001)                       cg2d_iters =    47
(PID.TID 0000.0001)                         cg2d_res =    4.30519068801802E-14
(PID.TID 0000.0001) // =======================================================
(PID.TID 0000.0001) // Begin MONITOR dynamic field statistics
(PID.TID 0000.0001) // =======================================================
(PID.TID 0000.0001) %MON time_tsnumber                =                     7
(PID.TID 0000.0001) %MON time_secondsf                =   4.6800000000000E+04
(PID.TID 0000.0001) %MON dynstat_eta_max              =   1.7621675611149E-01
(PID.TID 0000.0001) %MON dynstat_eta_min              =  -2.6854247035203E-01
(PID.TID 0000.0001) %MON dynstat_eta_mean             =   5.5149678666516E-18
(PID.TID 0000.0001) %MON dynstat_eta_sd               =   9.4044374854710E-02
(PID.TID 0000.0001) %MON dynstat_eta_del2             =   4.6225796111417E-03
(PID.TID 0000.0001) %MON dynstat_uvel_max             =   1.4579493199129E-01
(PID.TID 0000.0001) %MON dynstat_uvel_min             =  -1.6053843039811E-01
(PID.TID 0000.0001) %MON dynstat_uvel_mean            =   6.0829393211708E-04
(PID.TID 0000.0001) %MON dynstat_uvel_sd              =   7.4954424710523E-03
(PID.TID 0000.0001) %MON dynstat_uvel_del2            =   2.6829887663195E-03
(PID.TID 0000.0001) %MON dynstat_vvel_max             =   4.9443382332753E-02
(PID.TID 0000.0001) %MON dynstat_vvel_min             =  -1.2700691239201E-01
(PID.TID 0000.0001) %MON dynstat_vvel_mean            =  -3.7951331925973E-04
(PID.TID 0000.0001) %MON dynstat_vvel_sd              =   6.9721035956464E-03
(PID.TID 0000.0001) %MON dynstat_vvel_del2            =   2.5125743852010E-03
(PID.TID 0000.0001) %MON dynstat_wvel_max             =   1.3827799346526E-04
(PID.TID 0000.0001) %MON dynstat_wvel_min             =  -1.5784456829826E-04
(PID.TID 0000.0001) %MON dynstat_wvel_mean            =   7.8080086146819E-22
(PID.TID 0000.0001) %MON dynstat_wvel_sd              =   3.6483116345741E-05
(PID.TID 0000.0001) %MON dynstat_wvel_del2            =   8.7175626675921E-06
(PID.TID 0000.0001) %MON dynstat_theta_max            =   2.6081689358111E+01
(PID.TID 0000.0001) %MON dynstat_theta_min            =   1.8064465123701E+00
(PID.TID 0000.0001) %MON dynstat_theta_mean           =   5.4784990730336E+00
(PID.TID 0000.0001) %MON dynstat_theta_sd             =   4.5926821404813E+00
(PID.TID 0000.0001) %MON dynstat_theta_del2           =   5.0716823124861E-02
(PID.TID 0000.0001) %MON dynstat_salt_max             =   3.7401749862299E+01
(PID.TID 0000.0001) %MON dynstat_salt_min             =   3.4726797966194E+01
(PID.TID 0000.0001) %MON dynstat_salt_mean            =   3.5157560967918E+01
(PID.TID 0000.0001) %MON dynstat_salt_sd              =   4.1378053278257E-01
(PID.TID 0000.0001) %MON dynstat_salt_del2            =   1.2628514695507E-02
(PID.TID 0000.0001) %MON extforcing_qnet_max          =   3.5166198730469E+01
(PID.TID 0000.0001) %MON extforcing_qnet_min          =  -1.6987932586670E+02
(PID.TID 0000.0001) %MON extforcing_qnet_mean         =  -8.0416445516173E+01
(PID.TID 0000.0001) %MON extforcing_qnet_sd           =   5.1664471428311E+01
(PID.TID 0000.0001) %MON extforcing_qnet_del2         =   8.0872703890495E+00
(PID.TID 0000.0001) %MON extforcing_qsw_max           =  -1.4832495880127E+02
(PID.TID 0000.0001) %MON extforcing_qsw_min           =  -3.1513458251953E+02
(PID.TID 0000.0001) %MON extforcing_qsw_mean          =  -2.4790439471893E+02
(PID.TID 0000.0001) %MON extforcing_qsw_sd            =   4.1761053123375E+01
(PID.TID 0000.0001) %MON extforcing_qsw_del2          =   5.9130193400266E+00
(PID.TID 0000.0001) %MON extforcing_empmr_max         =   6.5844899382483E-05
(PID.TID 0000.0001) %MON extforcing_empmr_min         =   1.3001628403142E-05
(PID.TID 0000.0001) %MON extforcing_empmr_mean        =   3.9078607821765E-05
(PID.TID 0000.0001) %MON extforcing_empmr_sd          =   1.1829142672036E-05
(PID.TID 0000.0001) %MON extforcing_empmr_del2        =   2.2531052097796E-06
(PID.TID 0000.0001) %MON advcfl_uvel_max              =   3.0373548879646E-03
(PID.TID 0000.0001) %MON advcfl_vvel_max              =   2.0562838443155E-03
(PID.TID 0000.0001) %MON advcfl_wvel_max              =   6.3626763446995E-03
(PID.TID 0000.0001) %MON advcfl_W_hf_max              =   1.0476338736784E-02
(PID.TID 0000.0001) %MON pe_b_mean                    =   1.0660995389420E-05
(PID.TID 0000.0001) %MON ke_max                       =   1.2826900442121E-02
(PID.TID 0000.0001) %MON ke_mean                      =   4.6879007249939E-05
(PID.TID 0000.0001) %MON ke_vol                       =   3.6027486600263E+16
(PID.TID 0000.0001) %MON vort_r_min                   =  -4.2178397640786E-07
(PID.TID 0000.0001) %MON vort_r_max                   =   7.0095302083571E-07
(PID.TID 0000.0001) %MON vort_a_mean                  =   6.1944475191297E-05
(PID.TID 0000.0001) %MON vort_a_sd                    =   1.9198233889955E-05
(PID.TID 0000.0001) %MON vort_p_mean                  =   7.7881882182936E-05
(PID.TID 0000.0001) %MON vort_p_sd                    =   5.6367165663256E-05
(PID.TID 0000.0001) %MON surfExpan_theta_mean         =   2.6793446219585E-07
(PID.TID 0000.0001) %MON surfExpan_salt_mean          =  -7.5134424191813E-07
(PID.TID 0000.0001) // =======================================================
(PID.TID 0000.0001) // End MONITOR dynamic field statistics
(PID.TID 0000.0001) // =======================================================
 Computing Diagnostic # 169  KPPviscA     Counter:       1   Parms: SM P    UR      
 Computing Diagnostic # 170  KPPdiffS     Counter:       1   Parms: SM P    UR      
 Computing Diagnostic # 171  KPPdiffT     Counter:       1   Parms: SM P    UR      
 Computing Diagnostic # 172  KPPghat      Counter:       1   Parms: SM P    LR      
 Computing Diagnostic # 173  KPPhbl       Counter:       1   Parms: SM P     1      
 Computing Diagnostic # 175  KPPfrac      Counter:       1   Parms: SM P     1      
 Computing Diagnostic # 174  KPPmld       Counter:       1   Parms: SM P     1      
time,SST,SSS,fu,fv,Q,E-P,i0,i1,a,b =   4.6800E+04  0.0000E+00  0.0000E+00  0.0000E+00  0.0000E+00  0.0000E+00  0.0000E+00     1     2  5.8333E-01  4.1667E-01
time,fu0,fu1,fu =   4.6800E+04  0.0000E+00  0.0000E+00  0.0000E+00  5.833333333333334E-01  4.166666666666666E-01
 cg2d: Sum(rhs),rhsMax =   3.55271367880050E-15  5.94932676324137E-01
(PID.TID 0000.0001)                    cg2d_init_res =    2.04039839802020E-01
(PID.TID 0000.0001)                       cg2d_iters =    47
(PID.TID 0000.0001)                         cg2d_res =    3.87188769752601E-14
(PID.TID 0000.0001) // =======================================================
(PID.TID 0000.0001) // Begin MONITOR dynamic field statistics
(PID.TID 0000.0001) // =======================================================
(PID.TID 0000.0001) %MON time_tsnumber                =                     8
(PID.TID 0000.0001) %MON time_secondsf                =   5.0400000000000E+04
(PID.TID 0000.0001) %MON dynstat_eta_max              =   1.6654868364060E-01
(PID.TID 0000.0001) %MON dynstat_eta_min              =  -2.5257947890780E-01
(PID.TID 0000.0001) %MON dynstat_eta_mean             =   2.7574839333258E-17
(PID.TID 0000.0001) %MON dynstat_eta_sd               =   8.6936268953131E-02
(PID.TID 0000.0001) %MON dynstat_eta_del2             =   4.6354984931891E-03
(PID.TID 0000.0001) %MON dynstat_uvel_max             =   1.2081176813437E-01
(PID.TID 0000.0001) %MON dynstat_uvel_min             =  -1.7216925793502E-01
(PID.TID 0000.0001) %MON dynstat_uvel_mean            =   5.6371031827268E-04
(PID.TID 0000.0001) %MON dynstat_uvel_sd              =   8.1886960875777E-03
(PID.TID 0000.0001) %MON dynstat_uvel_del2            =   2.9838412224495E-03
(PID.TID 0000.0001) %MON dynstat_vvel_max             =   5.2723652989018E-02
(PID.TID 0000.0001) %MON dynstat_vvel_min             =  -1.2620451816128E-01
(PID.TID 0000.0001) %MON dynstat_vvel_mean            =  -3.4799315937127E-05
(PID.TID 0000.0001) %MON dynstat_vvel_sd              =   7.1861723907014E-03
(PID.TID 0000.0001) %MON dynstat_vvel_del2            =   2.4509869617476E-03
(PID.TID 0000.0001) %MON dynstat_wvel_max             =   1.3877310712707E-04
(PID.TID 0000.0001) %MON dynstat_wvel_min             =  -1.6481709262933E-04
(PID.TID 0000.0001) %MON dynstat_wvel_mean            =   6.1901329557839E-22
(PID.TID 0000.0001) %MON dynstat_wvel_sd              =   3.6261921895088E-05
(PID.TID 0000.0001) %MON dynstat_wvel_del2            =   8.3395399326739E-06
(PID.TID 0000.0001) %MON dynstat_theta_max            =   2.6088410869790E+01
(PID.TID 0000.0001) %MON dynstat_theta_min            =   1.8064487561209E+00
(PID.TID 0000.0001) %MON dynstat_theta_mean           =   5.4785176954248E+00
(PID.TID 0000.0001) %MON dynstat_theta_sd             =   4.5927440281752E+00
(PID.TID 0000.0001) %MON dynstat_theta_del2           =   5.0706817625193E-02
(PID.TID 0000.0001) %MON dynstat_salt_max             =   3.7402020372590E+01
(PID.TID 0000.0001) %MON dynstat_salt_min             =   3.4726798685854E+01
(PID.TID 0000.0001) %MON dynstat_salt_mean            =   3.5157562896989E+01
(PID.TID 0000.0001) %MON dynstat_salt_sd              =   4.1378547972311E-01
(PID.TID 0000.0001) %MON dynstat_salt_del2            =   1.2629417587202E-02
(PID.TID 0000.0001) %MON extforcing_qnet_max          =   3.7984158833822E+01
(PID.TID 0000.0001) %MON extforcing_qnet_min          =  -1.6853647994995E+02
(PID.TID 0000.0001) %MON extforcing_qnet_mean         =  -7.9448248268458E+01
(PID.TID 0000.0001) %MON extforcing_qnet_sd           =   5.1687193850144E+01
(PID.TID 0000.0001) %MON extforcing_qnet_del2         =   8.0776038898036E+00
(PID.TID 0000.0001) %MON extforcing_qsw_max           =  -1.4661845270793E+02
(PID.TID 0000.0001) %MON extforcing_qsw_min           =  -3.1572941589355E+02
(PID.TID 0000.0001) %MON extforcing_qsw_mean          =  -2.4818399441075E+02
(PID.TID 0000.0001) %MON extforcing_qsw_sd            =   4.1931857501445E+01
(PID.TID 0000.0001) %MON extforcing_qsw_del2          =   5.9088638850621E+00
(PID.TID 0000.0001) %MON extforcing_empmr_max         =   6.6317653831878E-05
(PID.TID 0000.0001) %MON extforcing_empmr_min         =   1.3151340821323E-05
(PID.TID 0000.0001) %MON extforcing_empmr_mean        =   3.9467967369872E-05
(PID.TID 0000.0001) %MON extforcing_empmr_sd          =   1.1817053741946E-05
(PID.TID 0000.0001) %MON extforcing_empmr_del2        =   2.2562164364477E-06
(PID.TID 0000.0001) %MON advcfl_uvel_max              =   2.8858086755964E-03
(PID.TID 0000.0001) %MON advcfl_vvel_max              =   2.0432928168010E-03
(PID.TID 0000.0001) %MON advcfl_wvel_max              =   5.5790383386093E-03
(PID.TID 0000.0001) %MON advcfl_W_hf_max              =   1.1158076677219E-02
(PID.TID 0000.0001) %MON pe_b_mean                    =   9.1103298837766E-06
(PID.TID 0000.0001) %MON ke_max                       =   1.4784736853025E-02
(PID.TID 0000.0001) %MON ke_mean                      =   5.3019898730959E-05
(PID.TID 0000.0001) %MON ke_vol                       =   3.6027486600263E+16
(PID.TID 0000.0001) %MON vort_r_min                   =  -3.5062184195646E-07
(PID.TID 0000.0001) %MON vort_r_max                   =   7.4831244905594E-07
(PID.TID 0000.0001) %MON vort_a_mean                  =   6.1944475191297E-05
(PID.TID 0000.0001) %MON vort_a_sd                    =   1.9198192134654E-05
(PID.TID 0000.0001) %MON vort_p_mean                  =   7.7881882182936E-05
(PID.TID 0000.0001) %MON vort_p_sd                    =   5.6367449137648E-05
(PID.TID 0000.0001) %MON surfExpan_theta_mean         =  -1.9850630732660E-06
(PID.TID 0000.0001) %MON surfExpan_salt_mean          =  -4.8278054241773E-07
(PID.TID 0000.0001) // =======================================================
(PID.TID 0000.0001) // End MONITOR dynamic field statistics
(PID.TID 0000.0001) // =======================================================
time,SST,SSS,fu,fv,Q,E-P,i0,i1,a,b =   5.0400E+04  0.0000E+00  0.0000E+00  0.0000E+00  0.0000E+00  0.0000E+00  0.0000E+00     1     2  6.6667E-01  3.3333E-01
time,fu0,fu1,fu =   5.0400E+04  0.0000E+00  0.0000E+00  0.0000E+00  6.666666666666666E-01  3.333333333333334E-01
 cg2d: Sum(rhs),rhsMax =  -1.24344978758018E-14  5.77956526126626E-01
(PID.TID 0000.0001)                    cg2d_init_res =    1.56306332697087E-01
(PID.TID 0000.0001)                       cg2d_iters =    46
(PID.TID 0000.0001)                         cg2d_res =    6.18809624743919E-14
(PID.TID 0000.0001) // =======================================================
(PID.TID 0000.0001) // Begin MONITOR dynamic field statistics
(PID.TID 0000.0001) // =======================================================
(PID.TID 0000.0001) %MON time_tsnumber                =                     9
(PID.TID 0000.0001) %MON time_secondsf                =   5.4000000000000E+04
(PID.TID 0000.0001) %MON dynstat_eta_max              =   1.5757371852432E-01
(PID.TID 0000.0001) %MON dynstat_eta_min              =  -2.3627632171428E-01
(PID.TID 0000.0001) %MON dynstat_eta_mean             =   5.5149678666516E-18
(PID.TID 0000.0001) %MON dynstat_eta_sd               =   8.0241779621152E-02
(PID.TID 0000.0001) %MON dynstat_eta_del2             =   4.6097272801529E-03
(PID.TID 0000.0001) %MON dynstat_uvel_max             =   9.4734070273048E-02
(PID.TID 0000.0001) %MON dynstat_uvel_min             =  -1.8182141788909E-01
(PID.TID 0000.0001) %MON dynstat_uvel_mean            =   4.0525451085106E-04
(PID.TID 0000.0001) %MON dynstat_uvel_sd              =   8.7446565062125E-03
(PID.TID 0000.0001) %MON dynstat_uvel_del2            =   3.2466843401236E-03
(PID.TID 0000.0001) %MON dynstat_vvel_max             =   6.1598954770080E-02
(PID.TID 0000.0001) %MON dynstat_vvel_min             =  -1.2372421802886E-01
(PID.TID 0000.0001) %MON dynstat_vvel_mean            =   2.5727206293954E-04
(PID.TID 0000.0001) %MON dynstat_vvel_sd              =   7.2817953333747E-03
(PID.TID 0000.0001) %MON dynstat_vvel_del2            =   2.3273736403861E-03
(PID.TID 0000.0001) %MON dynstat_wvel_max             =   1.4562806530881E-04
(PID.TID 0000.0001) %MON dynstat_wvel_min             =  -1.6669426954266E-04
(PID.TID 0000.0001) %MON dynstat_wvel_mean            =   5.9087632759755E-22
(PID.TID 0000.0001) %MON dynstat_wvel_sd              =   3.5411798391194E-05
(PID.TID 0000.0001) %MON dynstat_wvel_del2            =   7.8083723683100E-06
(PID.TID 0000.0001) %MON dynstat_theta_max            =   2.6095218439250E+01
(PID.TID 0000.0001) %MON dynstat_theta_min            =   1.8064508967732E+00
(PID.TID 0000.0001) %MON dynstat_theta_mean           =   5.4785378851523E+00
(PID.TID 0000.0001) %MON dynstat_theta_sd             =   4.5928118660247E+00
(PID.TID 0000.0001) %MON dynstat_theta_del2           =   5.0707402309188E-02
(PID.TID 0000.0001) %MON dynstat_salt_max             =   3.7402302817917E+01
(PID.TID 0000.0001) %MON dynstat_salt_min             =   3.4726799229148E+01
(PID.TID 0000.0001) %MON dynstat_salt_mean            =   3.5157564475805E+01
(PID.TID 0000.0001) %MON dynstat_salt_sd              =   4.1378953679858E-01
(PID.TID 0000.0001) %MON dynstat_salt_del2            =   1.2630629643367E-02
(PID.TID 0000.0001) %MON extforcing_qnet_max          =   4.0802118937174E+01
(PID.TID 0000.0001) %MON extforcing_qnet_min          =  -1.6719363403320E+02
(PID.TID 0000.0001) %MON extforcing_qnet_mean         =  -7.8480051020742E+01
(PID.TID 0000.0001) %MON extforcing_qnet_sd           =   5.1740364754944E+01
(PID.TID 0000.0001) %MON extforcing_qnet_del2         =   8.0758395891863E+00
(PID.TID 0000.0001) %MON extforcing_qsw_max           =  -1.4420261128743E+02
(PID.TID 0000.0001) %MON extforcing_qsw_min           =  -3.1632424926758E+02
(PID.TID 0000.0001) %MON extforcing_qsw_mean          =  -2.4846359410256E+02
(PID.TID 0000.0001) %MON extforcing_qsw_sd            =   4.2124756076541E+01
(PID.TID 0000.0001) %MON extforcing_qsw_del2          =   5.9065190207195E+00
(PID.TID 0000.0001) %MON extforcing_empmr_max         =   6.6790408281274E-05
(PID.TID 0000.0001) %MON extforcing_empmr_min         =   1.3301053239504E-05
(PID.TID 0000.0001) %MON extforcing_empmr_mean        =   3.9857326917978E-05
(PID.TID 0000.0001) %MON extforcing_empmr_sd          =   1.1815422392223E-05
(PID.TID 0000.0001) %MON extforcing_empmr_del2        =   2.2620901190917E-06
(PID.TID 0000.0001) %MON advcfl_uvel_max              =   3.0475929991615E-03
(PID.TID 0000.0001) %MON advcfl_vvel_max              =   2.0031359387595E-03
(PID.TID 0000.0001) %MON advcfl_wvel_max              =   5.4010844073582E-03
(PID.TID 0000.0001) %MON advcfl_W_hf_max              =   1.0802168814716E-02
(PID.TID 0000.0001) %MON pe_b_mean                    =   7.7612775018005E-06
(PID.TID 0000.0001) %MON ke_max                       =   1.6585410183842E-02
(PID.TID 0000.0001) %MON ke_mean                      =   5.7825985363216E-05
(PID.TID 0000.0001) %MON ke_vol                       =   3.6027486600263E+16
(PID.TID 0000.0001) %MON vort_r_min                   =  -3.6988377515844E-07
(PID.TID 0000.0001) %MON vort_r_max                   =   7.8721814143574E-07
(PID.TID 0000.0001) %MON vort_a_mean                  =   6.1944475191297E-05
(PID.TID 0000.0001) %MON vort_a_sd                    =   1.9198054553298E-05
(PID.TID 0000.0001) %MON vort_p_mean                  =   7.7881882182936E-05
(PID.TID 0000.0001) %MON vort_p_sd                    =   5.6367283298499E-05
(PID.TID 0000.0001) %MON surfExpan_theta_mean         =  -3.4282498308144E-06
(PID.TID 0000.0001) %MON surfExpan_salt_mean          =  -1.4223198969313E-07
(PID.TID 0000.0001) // =======================================================
(PID.TID 0000.0001) // End MONITOR dynamic field statistics
(PID.TID 0000.0001) // =======================================================
time,SST,SSS,fu,fv,Q,E-P,i0,i1,a,b =   5.4000E+04  0.0000E+00  0.0000E+00  0.0000E+00  0.0000E+00  0.0000E+00  0.0000E+00     1     2  7.5000E-01  2.5000E-01
time,fu0,fu1,fu =   5.4000E+04  0.0000E+00  0.0000E+00  0.0000E+00  7.500000000000000E-01  2.500000000000000E-01
 cg2d: Sum(rhs),rhsMax =  -1.77635683940025E-15  5.63257302733394E-01
(PID.TID 0000.0001)                    cg2d_init_res =    1.44645357480518E-01
(PID.TID 0000.0001)                       cg2d_iters =    46
(PID.TID 0000.0001)                         cg2d_res =    8.83093217807152E-14
(PID.TID 0000.0001) // =======================================================
(PID.TID 0000.0001) // Begin MONITOR dynamic field statistics
(PID.TID 0000.0001) // =======================================================
(PID.TID 0000.0001) %MON time_tsnumber                =                    10
(PID.TID 0000.0001) %MON time_secondsf                =   5.7600000000000E+04
(PID.TID 0000.0001) %MON dynstat_eta_max              =   1.5079363045296E-01
(PID.TID 0000.0001) %MON dynstat_eta_min              =  -2.2243263081641E-01
(PID.TID 0000.0001) %MON dynstat_eta_mean             =  -1.6544903599955E-17
(PID.TID 0000.0001) %MON dynstat_eta_sd               =   7.4949871335780E-02
(PID.TID 0000.0001) %MON dynstat_eta_del2             =   4.5693331402794E-03
(PID.TID 0000.0001) %MON dynstat_uvel_max             =   6.9217364364550E-02
(PID.TID 0000.0001) %MON dynstat_uvel_min             =  -1.9159267619394E-01
(PID.TID 0000.0001) %MON dynstat_uvel_mean            =   2.2123188500475E-04
(PID.TID 0000.0001) %MON dynstat_uvel_sd              =   9.1720295111220E-03
(PID.TID 0000.0001) %MON dynstat_uvel_del2            =   3.4444089821621E-03
(PID.TID 0000.0001) %MON dynstat_vvel_max             =   6.8875056941715E-02
(PID.TID 0000.0001) %MON dynstat_vvel_min             =  -1.2587468476191E-01
(PID.TID 0000.0001) %MON dynstat_vvel_mean            =   4.1695935029528E-04
(PID.TID 0000.0001) %MON dynstat_vvel_sd              =   7.2970559932556E-03
(PID.TID 0000.0001) %MON dynstat_vvel_del2            =   2.2005594322550E-03
(PID.TID 0000.0001) %MON dynstat_wvel_max             =   1.4994091536356E-04
(PID.TID 0000.0001) %MON dynstat_wvel_min             =  -1.6350851213693E-04
(PID.TID 0000.0001) %MON dynstat_wvel_mean            =   1.4068483990418E-22
(PID.TID 0000.0001) %MON dynstat_wvel_sd              =   3.4339991889094E-05
(PID.TID 0000.0001) %MON dynstat_wvel_del2            =   7.2723175581746E-06
(PID.TID 0000.0001) %MON dynstat_theta_max            =   2.6102081647933E+01
(PID.TID 0000.0001) %MON dynstat_theta_min            =   1.8064529061830E+00
(PID.TID 0000.0001) %MON dynstat_theta_mean           =   5.4785587106488E+00
(PID.TID 0000.0001) %MON dynstat_theta_sd             =   4.5928822386830E+00
(PID.TID 0000.0001) %MON dynstat_theta_del2           =   5.0719110594830E-02
(PID.TID 0000.0001) %MON dynstat_salt_max             =   3.7402601293971E+01
(PID.TID 0000.0001) %MON dynstat_salt_min             =   3.4726799930613E+01
(PID.TID 0000.0001) %MON dynstat_salt_mean            =   3.5157565725544E+01
(PID.TID 0000.0001) %MON dynstat_salt_sd              =   4.1379270500057E-01
(PID.TID 0000.0001) %MON dynstat_salt_del2            =   1.2632469797943E-02
(PID.TID 0000.0001) %MON extforcing_qnet_max          =   4.3620079040527E+01
(PID.TID 0000.0001) %MON extforcing_qnet_min          =  -1.6585078811646E+02
(PID.TID 0000.0001) %MON extforcing_qnet_mean         =  -7.7511853773026E+01
(PID.TID 0000.0001) %MON extforcing_qnet_sd           =   5.1823890423082E+01
(PID.TID 0000.0001) %MON extforcing_qnet_del2         =   8.0811202937159E+00
(PID.TID 0000.0001) %MON extforcing_qsw_max           =  -1.4178676986694E+02
(PID.TID 0000.0001) %MON extforcing_qsw_min           =  -3.1691908264160E+02
(PID.TID 0000.0001) %MON extforcing_qsw_mean          =  -2.4874319379438E+02
(PID.TID 0000.0001) %MON extforcing_qsw_sd            =   4.2339446866167E+01
(PID.TID 0000.0001) %MON extforcing_qsw_del2          =   5.9116569951250E+00
(PID.TID 0000.0001) %MON extforcing_empmr_max         =   6.7263162730669E-05
(PID.TID 0000.0001) %MON extforcing_empmr_min         =   1.3450765657685E-05
(PID.TID 0000.0001) %MON extforcing_empmr_mean        =   4.0246686466085E-05
(PID.TID 0000.0001) %MON extforcing_empmr_sd          =   1.1824252951252E-05
(PID.TID 0000.0001) %MON extforcing_empmr_del2        =   2.2694266614559E-06
(PID.TID 0000.0001) %MON advcfl_uvel_max              =   3.2436821678512E-03
(PID.TID 0000.0001) %MON advcfl_vvel_max              =   2.0379527051671E-03
(PID.TID 0000.0001) %MON advcfl_wvel_max              =   4.9018788144127E-03
(PID.TID 0000.0001) %MON advcfl_W_hf_max              =   9.8037576288254E-03
(PID.TID 0000.0001) %MON pe_b_mean                    =   6.7713286191650E-06
(PID.TID 0000.0001) %MON ke_max                       =   1.8088115925932E-02
(PID.TID 0000.0001) %MON ke_mean                      =   6.1366878256135E-05
(PID.TID 0000.0001) %MON ke_vol                       =   3.6027486600263E+16
(PID.TID 0000.0001) %MON vort_r_min                   =  -3.8000491696193E-07
(PID.TID 0000.0001) %MON vort_r_max                   =   8.1652131235682E-07
(PID.TID 0000.0001) %MON vort_a_mean                  =   6.1944475191297E-05
(PID.TID 0000.0001) %MON vort_a_sd                    =   1.9197896081351E-05
(PID.TID 0000.0001) %MON vort_p_mean                  =   7.7881882182936E-05
(PID.TID 0000.0001) %MON vort_p_sd                    =   5.6366822636765E-05
(PID.TID 0000.0001) %MON surfExpan_theta_mean         =  -3.8406917011794E-06
(PID.TID 0000.0001) %MON surfExpan_salt_mean          =   1.3191471375219E-07
(PID.TID 0000.0001) // =======================================================
(PID.TID 0000.0001) // End MONITOR dynamic field statistics
(PID.TID 0000.0001) // =======================================================
time,SST,SSS,fu,fv,Q,E-P,i0,i1,a,b =   5.7600E+04  0.0000E+00  0.0000E+00  0.0000E+00  0.0000E+00  0.0000E+00  0.0000E+00     1     2  8.3333E-01  1.6667E-01
time,fu0,fu1,fu =   5.7600E+04  0.0000E+00  0.0000E+00  0.0000E+00  8.333333333333334E-01  1.666666666666666E-01
 cg2d: Sum(rhs),rhsMax =   3.55271367880050E-15  5.52256128032011E-01
(PID.TID 0000.0001)                    cg2d_init_res =    1.38278665439635E-01
(PID.TID 0000.0001)                       cg2d_iters =    45
(PID.TID 0000.0001)                         cg2d_res =    7.06973612755440E-14
(PID.TID 0000.0001) // =======================================================
(PID.TID 0000.0001) // Begin MONITOR dynamic field statistics
(PID.TID 0000.0001) // =======================================================
(PID.TID 0000.0001) %MON time_tsnumber                =                    11
(PID.TID 0000.0001) %MON time_secondsf                =   6.1200000000000E+04
(PID.TID 0000.0001) %MON dynstat_eta_max              =   1.4688217901671E-01
(PID.TID 0000.0001) %MON dynstat_eta_min              =  -2.1251800217309E-01
(PID.TID 0000.0001) %MON dynstat_eta_mean             =  -1.6544903599955E-17
(PID.TID 0000.0001) %MON dynstat_eta_sd               =   7.1858650897490E-02
(PID.TID 0000.0001) %MON dynstat_eta_del2             =   4.5420362257284E-03
(PID.TID 0000.0001) %MON dynstat_uvel_max             =   4.8753778819492E-02
(PID.TID 0000.0001) %MON dynstat_uvel_min             =  -2.0225754617488E-01
(PID.TID 0000.0001) %MON dynstat_uvel_mean            =   6.2697633597704E-05
(PID.TID 0000.0001) %MON dynstat_uvel_sd              =   9.4761615955620E-03
(PID.TID 0000.0001) %MON dynstat_uvel_del2            =   3.5600007020059E-03
(PID.TID 0000.0001) %MON dynstat_vvel_max             =   7.3981567100689E-02
(PID.TID 0000.0001) %MON dynstat_vvel_min             =  -1.3194039117964E-01
(PID.TID 0000.0001) %MON dynstat_vvel_mean            =   4.2420072681292E-04
(PID.TID 0000.0001) %MON dynstat_vvel_sd              =   7.2596126288107E-03
(PID.TID 0000.0001) %MON dynstat_vvel_del2            =   2.1304860763256E-03
(PID.TID 0000.0001) %MON dynstat_wvel_max             =   1.5170809285026E-04
(PID.TID 0000.0001) %MON dynstat_wvel_min             =  -1.5549558509793E-04
(PID.TID 0000.0001) %MON dynstat_wvel_mean            =   9.5665691134842E-22
(PID.TID 0000.0001) %MON dynstat_wvel_sd              =   3.3374376579539E-05
(PID.TID 0000.0001) %MON dynstat_wvel_del2            =   6.8678389411647E-06
(PID.TID 0000.0001) %MON dynstat_theta_max            =   2.6108935196024E+01
(PID.TID 0000.0001) %MON dynstat_theta_min            =   1.8064548070524E+00
(PID.TID 0000.0001) %MON dynstat_theta_mean           =   5.4785791429683E+00
(PID.TID 0000.0001) %MON dynstat_theta_sd             =   4.5929512877766E+00
(PID.TID 0000.0001) %MON dynstat_theta_del2           =   5.0743107639418E-02
(PID.TID 0000.0001) %MON dynstat_salt_max             =   3.7402918022637E+01
(PID.TID 0000.0001) %MON dynstat_salt_min             =   3.4726801122118E+01
(PID.TID 0000.0001) %MON dynstat_salt_mean            =   3.5157566778531E+01
(PID.TID 0000.0001) %MON dynstat_salt_sd              =   4.1379528880091E-01
(PID.TID 0000.0001) %MON dynstat_salt_del2            =   1.2634933036972E-02
(PID.TID 0000.0001) %MON extforcing_qnet_max          =   4.6438039143880E+01
(PID.TID 0000.0001) %MON extforcing_qnet_min          =  -1.6450794219971E+02
(PID.TID 0000.0001) %MON extforcing_qnet_mean         =  -7.6543656525311E+01
(PID.TID 0000.0001) %MON extforcing_qnet_sd           =   5.1937624405908E+01
(PID.TID 0000.0001) %MON extforcing_qnet_del2         =   8.0963423248191E+00
(PID.TID 0000.0001) %MON extforcing_qsw_max           =  -1.3937092844645E+02
(PID.TID 0000.0001) %MON extforcing_qsw_min           =  -3.1751391601562E+02
(PID.TID 0000.0001) %MON extforcing_qsw_mean          =  -2.4902279348619E+02
(PID.TID 0000.0001) %MON extforcing_qsw_sd            =   4.2575600204769E+01
(PID.TID 0000.0001) %MON extforcing_qsw_del2          =   5.9252104109340E+00
(PID.TID 0000.0001) %MON extforcing_empmr_max         =   6.7735917180064E-05
(PID.TID 0000.0001) %MON extforcing_empmr_min         =   1.3600478075867E-05
(PID.TID 0000.0001) %MON extforcing_empmr_mean        =   4.0636046014191E-05
(PID.TID 0000.0001) %MON extforcing_empmr_sd          =   1.1843522017782E-05
(PID.TID 0000.0001) %MON extforcing_empmr_del2        =   2.2805237595540E-06
(PID.TID 0000.0001) %MON advcfl_uvel_max              =   3.4242394274858E-03
(PID.TID 0000.0001) %MON advcfl_vvel_max              =   2.1361584947279E-03
(PID.TID 0000.0001) %MON advcfl_wvel_max              =   4.4913449953278E-03
(PID.TID 0000.0001) %MON advcfl_W_hf_max              =   8.4771277580378E-03
(PID.TID 0000.0001) %MON pe_b_mean                    =   6.2242958397056E-06
(PID.TID 0000.0001) %MON ke_max                       =   1.9370851016540E-02
(PID.TID 0000.0001) %MON ke_mean                      =   6.3663598828541E-05
(PID.TID 0000.0001) %MON ke_vol                       =   3.6027486600263E+16
(PID.TID 0000.0001) %MON vort_r_min                   =  -3.8062664933455E-07
(PID.TID 0000.0001) %MON vort_r_max                   =   8.3396362232185E-07
(PID.TID 0000.0001) %MON vort_a_mean                  =   6.1944475191297E-05
(PID.TID 0000.0001) %MON vort_a_sd                    =   1.9197759781020E-05
(PID.TID 0000.0001) %MON vort_p_mean                  =   7.7881882182936E-05
(PID.TID 0000.0001) %MON vort_p_sd                    =   5.6366230924406E-05
(PID.TID 0000.0001) %MON surfExpan_theta_mean         =  -3.2804264379795E-06
(PID.TID 0000.0001) %MON surfExpan_salt_mean          =   2.6798583893777E-07
(PID.TID 0000.0001) // =======================================================
(PID.TID 0000.0001) // End MONITOR dynamic field statistics
(PID.TID 0000.0001) // =======================================================
time,SST,SSS,fu,fv,Q,E-P,i0,i1,a,b =   6.1200E+04  0.0000E+00  0.0000E+00  0.0000E+00  0.0000E+00  0.0000E+00  0.0000E+00     1     2  9.1667E-01  8.3333E-02
time,fu0,fu1,fu =   6.1200E+04  0.0000E+00  0.0000E+00  0.0000E+00  9.166666666666666E-01  8.333333333333337E-02
 cg2d: Sum(rhs),rhsMax =   8.88178419700125E-15  5.45298001166606E-01
(PID.TID 0000.0001)                    cg2d_init_res =    1.16565788952174E-01
(PID.TID 0000.0001)                       cg2d_iters =    45
(PID.TID 0000.0001)                         cg2d_res =    6.83063972457420E-14
(PID.TID 0000.0001) // =======================================================
(PID.TID 0000.0001) // Begin MONITOR dynamic field statistics
(PID.TID 0000.0001) // =======================================================
(PID.TID 0000.0001) %MON time_tsnumber                =                    12
(PID.TID 0000.0001) %MON time_secondsf                =   6.4800000000000E+04
(PID.TID 0000.0001) %MON dynstat_eta_max              =   1.4574302880625E-01
(PID.TID 0000.0001) %MON dynstat_eta_min              =  -2.0704057724641E-01
(PID.TID 0000.0001) %MON dynstat_eta_mean             =  -2.7574839333258E-17
(PID.TID 0000.0001) %MON dynstat_eta_sd               =   7.0998862602875E-02
(PID.TID 0000.0001) %MON dynstat_eta_del2             =   4.5374215753097E-03
(PID.TID 0000.0001) %MON dynstat_uvel_max             =   4.6111582010321E-02
(PID.TID 0000.0001) %MON dynstat_uvel_min             =  -2.0998523648870E-01
(PID.TID 0000.0001) %MON dynstat_uvel_mean            =  -5.1348918580372E-05
(PID.TID 0000.0001) %MON dynstat_uvel_sd              =   9.6655552231384E-03
(PID.TID 0000.0001) %MON dynstat_uvel_del2            =   3.5835291454407E-03
(PID.TID 0000.0001) %MON dynstat_vvel_max             =   7.6773775484625E-02
(PID.TID 0000.0001) %MON dynstat_vvel_min             =  -1.3654734860286E-01
(PID.TID 0000.0001) %MON dynstat_vvel_mean            =   3.1231474775016E-04
(PID.TID 0000.0001) %MON dynstat_vvel_sd              =   7.1862783127900E-03
(PID.TID 0000.0001) %MON dynstat_vvel_del2            =   2.1424388614877E-03
(PID.TID 0000.0001) %MON dynstat_wvel_max             =   1.5090555821383E-04
(PID.TID 0000.0001) %MON dynstat_wvel_min             =  -1.5152352519056E-04
(PID.TID 0000.0001) %MON dynstat_wvel_mean            =  -8.4410903942507E-22
(PID.TID 0000.0001) %MON dynstat_wvel_sd              =   3.2680868371076E-05
(PID.TID 0000.0001) %MON dynstat_wvel_del2            =   6.7347575185964E-06
(PID.TID 0000.0001) %MON dynstat_theta_max            =   2.6115712327210E+01
(PID.TID 0000.0001) %MON dynstat_theta_min            =   1.8064566492904E+00
(PID.TID 0000.0001) %MON dynstat_theta_mean           =   5.4785983523057E+00
(PID.TID 0000.0001) %MON dynstat_theta_sd             =   4.5930158625461E+00
(PID.TID 0000.0001) %MON dynstat_theta_del2           =   5.0779455845936E-02
(PID.TID 0000.0001) %MON dynstat_salt_max             =   3.7403252839418E+01
(PID.TID 0000.0001) %MON dynstat_salt_min             =   3.4726803102633E+01
(PID.TID 0000.0001) %MON dynstat_salt_mean            =   3.5157567795032E+01
(PID.TID 0000.0001) %MON dynstat_salt_sd              =   4.1379770444628E-01
(PID.TID 0000.0001) %MON dynstat_salt_del2            =   1.2638774409122E-02
(PID.TID 0000.0001) %MON extforcing_qnet_max          =   4.9255999247233E+01
(PID.TID 0000.0001) %MON extforcing_qnet_min          =  -1.6316509628296E+02
(PID.TID 0000.0001) %MON extforcing_qnet_mean         =  -7.5575459277595E+01
(PID.TID 0000.0001) %MON extforcing_qnet_sd           =   5.2081368799327E+01
(PID.TID 0000.0001) %MON extforcing_qnet_del2         =   8.1172915977014E+00
(PID.TID 0000.0001) %MON extforcing_qsw_max           =  -1.3695508702596E+02
(PID.TID 0000.0001) %MON extforcing_qsw_min           =  -3.1810874938965E+02
(PID.TID 0000.0001) %MON extforcing_qsw_mean          =  -2.4930239317800E+02
(PID.TID 0000.0001) %MON extforcing_qsw_sd            =   4.2832861101004E+01
(PID.TID 0000.0001) %MON extforcing_qsw_del2          =   5.9467413202295E+00
(PID.TID 0000.0001) %MON extforcing_empmr_max         =   6.8208671629459E-05
(PID.TID 0000.0001) %MON extforcing_empmr_min         =   1.3750190494048E-05
(PID.TID 0000.0001) %MON extforcing_empmr_mean        =   4.1025405562298E-05
(PID.TID 0000.0001) %MON extforcing_empmr_sd          =   1.1873178769737E-05
(PID.TID 0000.0001) %MON extforcing_empmr_del2        =   2.2928655708299E-06
(PID.TID 0000.0001) %MON advcfl_uvel_max              =   3.5550699569590E-03
(PID.TID 0000.0001) %MON advcfl_vvel_max              =   2.2107466564461E-03
(PID.TID 0000.0001) %MON advcfl_wvel_max              =   4.3471065741651E-03
(PID.TID 0000.0001) %MON advcfl_W_hf_max              =   7.0433836991644E-03
(PID.TID 0000.0001) %MON pe_b_mean                    =   6.0762395973916E-06
(PID.TID 0000.0001) %MON ke_max                       =   2.1297461072702E-02
(PID.TID 0000.0001) %MON ke_mean                      =   6.4793867913148E-05
(PID.TID 0000.0001) %MON ke_vol                       =   3.6027486600263E+16
(PID.TID 0000.0001) %MON vort_r_min                   =  -3.8667430278461E-07
(PID.TID 0000.0001) %MON vort_r_max                   =   8.3637175898636E-07
(PID.TID 0000.0001) %MON vort_a_mean                  =   6.1944475191297E-05
(PID.TID 0000.0001) %MON vort_a_sd                    =   1.9197661365015E-05
(PID.TID 0000.0001) %MON vort_p_mean                  =   7.7881882182936E-05
(PID.TID 0000.0001) %MON vort_p_sd                    =   5.6365658384440E-05
(PID.TID 0000.0001) %MON surfExpan_theta_mean         =  -2.0601320234845E-06
(PID.TID 0000.0001) %MON surfExpan_salt_mean          =   2.6741144173261E-07
(PID.TID 0000.0001) // =======================================================
(PID.TID 0000.0001) // End MONITOR dynamic field statistics
(PID.TID 0000.0001) // =======================================================
S/R EXTERNAL_FIELDS_LOAD: Reading new data:    2    3        12  6.480000000000E+04
(PID.TID 0000.0001)  MDS_READ_FIELD: opening global file: kf_tx
(PID.TID 0000.0001)  MDS_READ_FIELD: opening global file: kf_tx
(PID.TID 0000.0001)  MDS_READ_FIELD: opening global file: kf_ty
(PID.TID 0000.0001)  MDS_READ_FIELD: opening global file: kf_ty
(PID.TID 0000.0001)  MDS_READ_FIELD: opening global file: kf_qnet
(PID.TID 0000.0001)  MDS_READ_FIELD: opening global file: kf_qnet
(PID.TID 0000.0001)  MDS_READ_FIELD: opening global file: kf_empmr
(PID.TID 0000.0001)  MDS_READ_FIELD: opening global file: kf_empmr
(PID.TID 0000.0001)  MDS_READ_FIELD: opening global file: kf_sst
(PID.TID 0000.0001)  MDS_READ_FIELD: opening global file: kf_sst
(PID.TID 0000.0001)  MDS_READ_FIELD: opening global file: kf_sss
(PID.TID 0000.0001)  MDS_READ_FIELD: opening global file: kf_sss
(PID.TID 0000.0001)  MDS_READ_FIELD: opening global file: kf_sw
(PID.TID 0000.0001)  MDS_READ_FIELD: opening global file: kf_sw
time,SST,SSS,fu,fv,Q,E-P,i0,i1,a,b =   6.4800E+04  0.0000E+00  0.0000E+00  0.0000E+00  0.0000E+00  0.0000E+00  0.0000E+00     2     3  0.0000E+00  1.0000E+00
time,fu0,fu1,fu =   6.4800E+04  0.0000E+00  0.0000E+00  0.0000E+00  0.000000000000000E+00  1.000000000000000E+00
 cg2d: Sum(rhs),rhsMax =   1.06581410364015E-14  5.42106080048045E-01
(PID.TID 0000.0001)                    cg2d_init_res =    9.01764088588988E-02
(PID.TID 0000.0001)                       cg2d_iters =    45
(PID.TID 0000.0001)                         cg2d_res =    8.97008160971397E-14
(PID.TID 0000.0001) // =======================================================
(PID.TID 0000.0001) // Begin MONITOR dynamic field statistics
(PID.TID 0000.0001) // =======================================================
(PID.TID 0000.0001) %MON time_tsnumber                =                    13
(PID.TID 0000.0001) %MON time_secondsf                =   6.8400000000000E+04
(PID.TID 0000.0001) %MON dynstat_eta_max              =   1.4671820797377E-01
(PID.TID 0000.0001) %MON dynstat_eta_min              =  -2.0578747274718E-01
(PID.TID 0000.0001) %MON dynstat_eta_mean             =  -4.9634710799864E-17
(PID.TID 0000.0001) %MON dynstat_eta_sd               =   7.1731972186890E-02
(PID.TID 0000.0001) %MON dynstat_eta_del2             =   4.5531429453891E-03
(PID.TID 0000.0001) %MON dynstat_uvel_max             =   4.5572823176656E-02
(PID.TID 0000.0001) %MON dynstat_uvel_min             =  -2.1344112177773E-01
(PID.TID 0000.0001) %MON dynstat_uvel_mean            =  -1.2066110727551E-04
(PID.TID 0000.0001) %MON dynstat_uvel_sd              =   9.7462315703223E-03
(PID.TID 0000.0001) %MON dynstat_uvel_del2            =   3.5154718171613E-03
(PID.TID 0000.0001) %MON dynstat_vvel_max             =   7.7414971342415E-02
(PID.TID 0000.0001) %MON dynstat_vvel_min             =  -1.3955317419818E-01
(PID.TID 0000.0001) %MON dynstat_vvel_mean            =   1.4388371873667E-04
(PID.TID 0000.0001) %MON dynstat_vvel_sd              =   7.0824499979811E-03
(PID.TID 0000.0001) %MON dynstat_vvel_del2            =   2.2242506602154E-03
(PID.TID 0000.0001) %MON dynstat_wvel_max             =   1.4750788715536E-04
(PID.TID 0000.0001) %MON dynstat_wvel_min             =  -1.5893253660259E-04
(PID.TID 0000.0001) %MON dynstat_wvel_mean            =  -2.2509574384669E-22
(PID.TID 0000.0001) %MON dynstat_wvel_sd              =   3.2216163992906E-05
(PID.TID 0000.0001) %MON dynstat_wvel_del2            =   6.8165523373025E-06
(PID.TID 0000.0001) %MON dynstat_theta_max            =   2.6122368870974E+01
(PID.TID 0000.0001) %MON dynstat_theta_min            =   1.8064584952313E+00
(PID.TID 0000.0001) %MON dynstat_theta_mean           =   5.4786159207448E+00
(PID.TID 0000.0001) %MON dynstat_theta_sd             =   4.5930743520487E+00
(PID.TID 0000.0001) %MON dynstat_theta_del2           =   5.0829732808959E-02
(PID.TID 0000.0001) %MON dynstat_salt_max             =   3.7403603067285E+01
(PID.TID 0000.0001) %MON dynstat_salt_min             =   3.4726806065798E+01
(PID.TID 0000.0001) %MON dynstat_salt_mean            =   3.5157568895298E+01
(PID.TID 0000.0001) %MON dynstat_salt_sd              =   4.1380028717875E-01
(PID.TID 0000.0001) %MON dynstat_salt_del2            =   1.2642093126592E-02
(PID.TID 0000.0001) %MON extforcing_qnet_max          =   5.2073959350586E+01
(PID.TID 0000.0001) %MON extforcing_qnet_min          =  -1.6258977508545E+02
(PID.TID 0000.0001) %MON extforcing_qnet_mean         =  -7.4607262029879E+01
(PID.TID 0000.0001) %MON extforcing_qnet_sd           =   5.2254875943117E+01
(PID.TID 0000.0001) %MON extforcing_qnet_del2         =   8.1457465787239E+00
(PID.TID 0000.0001) %MON extforcing_qsw_max           =  -1.3453924560547E+02
(PID.TID 0000.0001) %MON extforcing_qsw_min           =  -3.1870358276367E+02
(PID.TID 0000.0001) %MON extforcing_qsw_mean          =  -2.4958199286982E+02
(PID.TID 0000.0001) %MON extforcing_qsw_sd            =   4.3110851683050E+01
(PID.TID 0000.0001) %MON extforcing_qsw_del2          =   5.9705705689679E+00
(PID.TID 0000.0001) %MON extforcing_empmr_max         =   6.8681426078854E-05
(PID.TID 0000.0001) %MON extforcing_empmr_min         =   1.3899902912229E-05
(PID.TID 0000.0001) %MON extforcing_empmr_mean        =   4.1414765110404E-05
(PID.TID 0000.0001) %MON extforcing_empmr_sd          =   1.1913145629620E-05
(PID.TID 0000.0001) %MON extforcing_empmr_del2        =   2.3063705960589E-06
(PID.TID 0000.0001) %MON advcfl_uvel_max              =   3.6135784224643E-03
(PID.TID 0000.0001) %MON advcfl_vvel_max              =   2.2594119652397E-03
(PID.TID 0000.0001) %MON advcfl_wvel_max              =   4.1581355066477E-03
(PID.TID 0000.0001) %MON advcfl_W_hf_max              =   6.0458179064379E-03
(PID.TID 0000.0001) %MON pe_b_mean                    =   6.2023697179176E-06
(PID.TID 0000.0001) %MON ke_max                       =   2.2862394517329E-02
(PID.TID 0000.0001) %MON ke_mean                      =   6.4819895475398E-05
(PID.TID 0000.0001) %MON ke_vol                       =   3.6027486600263E+16
(PID.TID 0000.0001) %MON vort_r_min                   =  -3.8994359548516E-07
(PID.TID 0000.0001) %MON vort_r_max                   =   8.2886986889344E-07
(PID.TID 0000.0001) %MON vort_a_mean                  =   6.1944475191297E-05
(PID.TID 0000.0001) %MON vort_a_sd                    =   1.9197600625194E-05
(PID.TID 0000.0001) %MON vort_p_mean                  =   7.7881882182936E-05
(PID.TID 0000.0001) %MON vort_p_sd                    =   5.6365229522479E-05
(PID.TID 0000.0001) %MON surfExpan_theta_mean         =  -6.2520560995270E-07
(PID.TID 0000.0001) %MON surfExpan_salt_mean          =   1.7918997030086E-07
(PID.TID 0000.0001) // =======================================================
(PID.TID 0000.0001) // End MONITOR dynamic field statistics
(PID.TID 0000.0001) // =======================================================
time,SST,SSS,fu,fv,Q,E-P,i0,i1,a,b =   6.8400E+04  0.0000E+00  0.0000E+00  0.0000E+00  0.0000E+00  0.0000E+00  0.0000E+00     2     3  8.3333E-02  9.1667E-01
time,fu0,fu1,fu =   6.8400E+04  0.0000E+00  0.0000E+00  0.0000E+00  8.333333333333333E-02  9.166666666666666E-01
 cg2d: Sum(rhs),rhsMax =   7.10542735760100E-15  5.41934961992844E-01
(PID.TID 0000.0001)                    cg2d_init_res =    7.96145916196215E-02
(PID.TID 0000.0001)                       cg2d_iters =    45
(PID.TID 0000.0001)                         cg2d_res =    9.05845506585874E-14
(PID.TID 0000.0001) // =======================================================
(PID.TID 0000.0001) // Begin MONITOR dynamic field statistics
(PID.TID 0000.0001) // =======================================================
(PID.TID 0000.0001) %MON time_tsnumber                =                    14
(PID.TID 0000.0001) %MON time_secondsf                =   7.2000000000000E+04
(PID.TID 0000.0001) %MON dynstat_eta_max              =   1.4888181120536E-01
(PID.TID 0000.0001) %MON dynstat_eta_min              =  -2.0790915535524E-01
(PID.TID 0000.0001) %MON dynstat_eta_mean             =  -4.4119742933212E-17
(PID.TID 0000.0001) %MON dynstat_eta_sd               =   7.3310251473980E-02
(PID.TID 0000.0001) %MON dynstat_eta_del2             =   4.5743182977615E-03
(PID.TID 0000.0001) %MON dynstat_uvel_max             =   4.3470965181920E-02
(PID.TID 0000.0001) %MON dynstat_uvel_min             =  -2.1477250011552E-01
(PID.TID 0000.0001) %MON dynstat_uvel_mean            =  -1.5278903839415E-04
(PID.TID 0000.0001) %MON dynstat_uvel_sd              =   9.7301965529481E-03
(PID.TID 0000.0001) %MON dynstat_uvel_del2            =   3.3607230784574E-03
(PID.TID 0000.0001) %MON dynstat_vvel_max             =   8.1052274902663E-02
(PID.TID 0000.0001) %MON dynstat_vvel_min             =  -1.4074264644047E-01
(PID.TID 0000.0001) %MON dynstat_vvel_mean            =  -1.7687734979968E-05
(PID.TID 0000.0001) %MON dynstat_vvel_sd              =   6.9468497011263E-03
(PID.TID 0000.0001) %MON dynstat_vvel_del2            =   2.3466783050421E-03
(PID.TID 0000.0001) %MON dynstat_wvel_max             =   1.4155548378787E-04
(PID.TID 0000.0001) %MON dynstat_wvel_min             =  -1.6486549057300E-04
(PID.TID 0000.0001) %MON dynstat_wvel_mean            =   2.2509574384669E-22
(PID.TID 0000.0001) %MON dynstat_wvel_sd              =   3.1773295793513E-05
(PID.TID 0000.0001) %MON dynstat_wvel_del2            =   6.9697860613063E-06
(PID.TID 0000.0001) %MON dynstat_theta_max            =   2.6128822203127E+01
(PID.TID 0000.0001) %MON dynstat_theta_min            =   1.8064604100805E+00
(PID.TID 0000.0001) %MON dynstat_theta_mean           =   5.4786318993987E+00
(PID.TID 0000.0001) %MON dynstat_theta_sd             =   4.5931269736457E+00
(PID.TID 0000.0001) %MON dynstat_theta_del2           =   5.0895070592829E-02
(PID.TID 0000.0001) %MON dynstat_salt_max             =   3.7403965459710E+01
(PID.TID 0000.0001) %MON dynstat_salt_min             =   3.4726810055940E+01
(PID.TID 0000.0001) %MON dynstat_salt_mean            =   3.5157570132571E+01
(PID.TID 0000.0001) %MON dynstat_salt_sd              =   4.1380320134714E-01
(PID.TID 0000.0001) %MON dynstat_salt_del2            =   1.2644850020544E-02
(PID.TID 0000.0001) %MON extforcing_qnet_max          =   5.1977971394857E+01
(PID.TID 0000.0001) %MON extforcing_qnet_min          =  -1.6385988362630E+02
(PID.TID 0000.0001) %MON extforcing_qnet_mean         =  -7.3651586729899E+01
(PID.TID 0000.0001) %MON extforcing_qnet_sd           =   5.1704387965704E+01
(PID.TID 0000.0001) %MON extforcing_qnet_del2         =   8.0395881186174E+00
(PID.TID 0000.0001) %MON extforcing_qsw_max           =  -1.3404340108236E+02
(PID.TID 0000.0001) %MON extforcing_qsw_min           =  -3.1842380015055E+02
(PID.TID 0000.0001) %MON extforcing_qsw_mean          =  -2.5003001626694E+02
(PID.TID 0000.0001) %MON extforcing_qsw_sd            =   4.2766618166345E+01
(PID.TID 0000.0001) %MON extforcing_qsw_del2          =   5.8008702815264E+00
(PID.TID 0000.0001) %MON extforcing_empmr_max         =   6.8503168801470E-05
(PID.TID 0000.0001) %MON extforcing_empmr_min         =   1.3984636391040E-05
(PID.TID 0000.0001) %MON extforcing_empmr_mean        =   4.1836037621644E-05
(PID.TID 0000.0001) %MON extforcing_empmr_sd          =   1.1816049545074E-05
(PID.TID 0000.0001) %MON extforcing_empmr_del2        =   2.2987105901136E-06
(PID.TID 0000.0001) %MON advcfl_uvel_max              =   3.6336979523936E-03
(PID.TID 0000.0001) %MON advcfl_vvel_max              =   2.2786699135594E-03
(PID.TID 0000.0001) %MON advcfl_wvel_max              =   3.9789536226962E-03
(PID.TID 0000.0001) %MON advcfl_W_hf_max              =   6.6156194880502E-03
(PID.TID 0000.0001) %MON pe_b_mean                    =   6.4783070202222E-06
(PID.TID 0000.0001) %MON ke_max                       =   2.3985740615282E-02
(PID.TID 0000.0001) %MON ke_mean                      =   6.3838652465617E-05
(PID.TID 0000.0001) %MON ke_vol                       =   3.6027486600263E+16
(PID.TID 0000.0001) %MON vort_r_min                   =  -4.4771985155134E-07
(PID.TID 0000.0001) %MON vort_r_max                   =   8.1679691584244E-07
(PID.TID 0000.0001) %MON vort_a_mean                  =   6.1944475191297E-05
(PID.TID 0000.0001) %MON vort_a_sd                    =   1.9197570743558E-05
(PID.TID 0000.0001) %MON vort_p_mean                  =   7.7881882182936E-05
(PID.TID 0000.0001) %MON vort_p_sd                    =   5.6365028540983E-05
(PID.TID 0000.0001) %MON surfExpan_theta_mean         =   6.0753735941788E-07
(PID.TID 0000.0001) %MON surfExpan_salt_mean          =   6.4653695453760E-08
(PID.TID 0000.0001) // =======================================================
(PID.TID 0000.0001) // End MONITOR dynamic field statistics
(PID.TID 0000.0001) // =======================================================
time,SST,SSS,fu,fv,Q,E-P,i0,i1,a,b =   7.2000E+04  0.0000E+00  0.0000E+00  0.0000E+00  0.0000E+00  0.0000E+00  0.0000E+00     2     3  1.6667E-01  8.3333E-01
time,fu0,fu1,fu =   7.2000E+04  0.0000E+00  0.0000E+00  0.0000E+00  1.666666666666667E-01  8.333333333333334E-01
 cg2d: Sum(rhs),rhsMax =   7.10542735760100E-15  5.43849110924048E-01
(PID.TID 0000.0001)                    cg2d_init_res =    8.29647444276418E-02
(PID.TID 0000.0001)                       cg2d_iters =    45
(PID.TID 0000.0001)                         cg2d_res =    6.64305527396273E-14
(PID.TID 0000.0001) // =======================================================
(PID.TID 0000.0001) // Begin MONITOR dynamic field statistics
(PID.TID 0000.0001) // =======================================================
(PID.TID 0000.0001) %MON time_tsnumber                =                    15
(PID.TID 0000.0001) %MON time_secondsf                =   7.5600000000000E+04
(PID.TID 0000.0001) %MON dynstat_eta_max              =   1.5127704537443E-01
(PID.TID 0000.0001) %MON dynstat_eta_min              =  -2.1224719653698E-01
(PID.TID 0000.0001) %MON dynstat_eta_mean             =  -8.8239485866425E-17
(PID.TID 0000.0001) %MON dynstat_eta_sd               =   7.5168486433998E-02
(PID.TID 0000.0001) %MON dynstat_eta_del2             =   4.6033701452830E-03
(PID.TID 0000.0001) %MON dynstat_uvel_max             =   3.9991066310535E-02
(PID.TID 0000.0001) %MON dynstat_uvel_min             =  -2.1879743986532E-01
(PID.TID 0000.0001) %MON dynstat_uvel_mean            =  -1.5543921563502E-04
(PID.TID 0000.0001) %MON dynstat_uvel_sd              =   9.6243035004473E-03
(PID.TID 0000.0001) %MON dynstat_uvel_del2            =   3.1422857800821E-03
(PID.TID 0000.0001) %MON dynstat_vvel_max             =   8.3990072539586E-02
(PID.TID 0000.0001) %MON dynstat_vvel_min             =  -1.3989320532096E-01
(PID.TID 0000.0001) %MON dynstat_vvel_mean            =  -1.2744740724869E-04
(PID.TID 0000.0001) %MON dynstat_vvel_sd              =   6.7765797573422E-03
(PID.TID 0000.0001) %MON dynstat_vvel_del2            =   2.4370476258832E-03
(PID.TID 0000.0001) %MON dynstat_wvel_max             =   1.3315465093812E-04
(PID.TID 0000.0001) %MON dynstat_wvel_min             =  -1.6931863315676E-04
(PID.TID 0000.0001) %MON dynstat_wvel_mean            =  -1.1254787192334E-22
(PID.TID 0000.0001) %MON dynstat_wvel_sd              =   3.1102745823890E-05
(PID.TID 0000.0001) %MON dynstat_wvel_del2            =   6.9693990134745E-06
(PID.TID 0000.0001) %MON dynstat_theta_max            =   2.6135111123990E+01
(PID.TID 0000.0001) %MON dynstat_theta_min            =   1.8064624590906E+00
(PID.TID 0000.0001) %MON dynstat_theta_mean           =   5.4786466869450E+00
(PID.TID 0000.0001) %MON dynstat_theta_sd             =   4.5931751868335E+00
(PID.TID 0000.0001) %MON dynstat_theta_del2           =   5.0968962159039E-02
(PID.TID 0000.0001) %MON dynstat_salt_max             =   3.7404332408305E+01
(PID.TID 0000.0001) %MON dynstat_salt_min             =   3.4726814940045E+01
(PID.TID 0000.0001) %MON dynstat_salt_mean            =   3.5157571497057E+01
(PID.TID 0000.0001) %MON dynstat_salt_sd              =   4.1380644570572E-01
(PID.TID 0000.0001) %MON dynstat_salt_del2            =   1.2646863724962E-02
(PID.TID 0000.0001) %MON extforcing_qnet_max          =   5.1881983439128E+01
(PID.TID 0000.0001) %MON extforcing_qnet_min          =  -1.6512999216715E+02
(PID.TID 0000.0001) %MON extforcing_qnet_mean         =  -7.2695911429919E+01
(PID.TID 0000.0001) %MON extforcing_qnet_sd           =   5.1206831276043E+01
(PID.TID 0000.0001) %MON extforcing_qnet_del2         =   7.9459580138008E+00
(PID.TID 0000.0001) %MON extforcing_qsw_max           =  -1.3354755655924E+02
(PID.TID 0000.0001) %MON extforcing_qsw_min           =  -3.1814401753743E+02
(PID.TID 0000.0001) %MON extforcing_qsw_mean          =  -2.5047803966406E+02
(PID.TID 0000.0001) %MON extforcing_qsw_sd            =   4.2471564939527E+01
(PID.TID 0000.0001) %MON extforcing_qsw_del2          =   5.6487943276592E+00
(PID.TID 0000.0001) %MON extforcing_empmr_max         =   6.8324911524087E-05
(PID.TID 0000.0001) %MON extforcing_empmr_min         =   1.4069369869851E-05
(PID.TID 0000.0001) %MON extforcing_empmr_mean        =   4.2257310132885E-05
(PID.TID 0000.0001) %MON extforcing_empmr_sd          =   1.1736454149462E-05
(PID.TID 0000.0001) %MON extforcing_empmr_del2        =   2.2961946400204E-06
(PID.TID 0000.0001) %MON advcfl_uvel_max              =   3.6819039074463E-03
(PID.TID 0000.0001) %MON advcfl_vvel_max              =   2.2649171813824E-03
(PID.TID 0000.0001) %MON advcfl_wvel_max              =   4.1812786101154E-03
(PID.TID 0000.0001) %MON advcfl_W_hf_max              =   7.1289685751952E-03
(PID.TID 0000.0001) %MON pe_b_mean                    =   6.8108876884098E-06
(PID.TID 0000.0001) %MON ke_max                       =   2.4838447433914E-02
(PID.TID 0000.0001) %MON ke_mean                      =   6.1896789295617E-05
(PID.TID 0000.0001) %MON ke_vol                       =   3.6027486600263E+16
(PID.TID 0000.0001) %MON vort_r_min                   =  -4.8551351201408E-07
(PID.TID 0000.0001) %MON vort_r_max                   =   8.0185912094755E-07
(PID.TID 0000.0001) %MON vort_a_mean                  =   6.1944475191297E-05
(PID.TID 0000.0001) %MON vort_a_sd                    =   1.9197564974065E-05
(PID.TID 0000.0001) %MON vort_p_mean                  =   7.7881882182936E-05
(PID.TID 0000.0001) %MON vort_p_sd                    =   5.6365105549028E-05
(PID.TID 0000.0001) %MON surfExpan_theta_mean         =   1.3555111367145E-06
(PID.TID 0000.0001) %MON surfExpan_salt_mean          =  -2.8808420274285E-08
(PID.TID 0000.0001) // =======================================================
(PID.TID 0000.0001) // End MONITOR dynamic field statistics
(PID.TID 0000.0001) // =======================================================
time,SST,SSS,fu,fv,Q,E-P,i0,i1,a,b =   7.5600E+04  0.0000E+00  0.0000E+00  0.0000E+00  0.0000E+00  0.0000E+00  0.0000E+00     2     3  2.5000E-01  7.5000E-01
time,fu0,fu1,fu =   7.5600E+04  0.0000E+00  0.0000E+00  0.0000E+00  2.500000000000000E-01  7.500000000000000E-01
 cg2d: Sum(rhs),rhsMax =   1.77635683940025E-14  5.46920352907118E-01
(PID.TID 0000.0001)                    cg2d_init_res =    8.43607049146404E-02
(PID.TID 0000.0001)                       cg2d_iters =    44
(PID.TID 0000.0001)                         cg2d_res =    7.59961018479451E-14
(PID.TID 0000.0001) // =======================================================
(PID.TID 0000.0001) // Begin MONITOR dynamic field statistics
(PID.TID 0000.0001) // =======================================================
(PID.TID 0000.0001) %MON time_tsnumber                =                    16
(PID.TID 0000.0001) %MON time_secondsf                =   7.9200000000000E+04
(PID.TID 0000.0001) %MON dynstat_eta_max              =   1.5316399434251E-01
(PID.TID 0000.0001) %MON dynstat_eta_min              =  -2.1737722695068E-01
(PID.TID 0000.0001) %MON dynstat_eta_mean             =  -4.4119742933212E-17
(PID.TID 0000.0001) %MON dynstat_eta_sd               =   7.6891866779474E-02
(PID.TID 0000.0001) %MON dynstat_eta_del2             =   4.6405430459403E-03
(PID.TID 0000.0001) %MON dynstat_uvel_max             =   3.5666593964092E-02
(PID.TID 0000.0001) %MON dynstat_uvel_min             =  -2.2089706440324E-01
(PID.TID 0000.0001) %MON dynstat_uvel_mean            =  -1.3666619750509E-04
(PID.TID 0000.0001) %MON dynstat_uvel_sd              =   9.4384193940252E-03
(PID.TID 0000.0001) %MON dynstat_uvel_del2            =   2.8807662000301E-03
(PID.TID 0000.0001) %MON dynstat_vvel_max             =   8.8869997850592E-02
(PID.TID 0000.0001) %MON dynstat_vvel_min             =  -1.3685898854723E-01
(PID.TID 0000.0001) %MON dynstat_vvel_mean            =  -1.6847493606491E-04
(PID.TID 0000.0001) %MON dynstat_vvel_sd              =   6.5783780057998E-03
(PID.TID 0000.0001) %MON dynstat_vvel_del2            =   2.4653741053696E-03
(PID.TID 0000.0001) %MON dynstat_wvel_max             =   1.2252270274935E-04
(PID.TID 0000.0001) %MON dynstat_wvel_min             =  -1.7225652062232E-04
(PID.TID 0000.0001) %MON dynstat_wvel_mean            =   5.6273935961672E-22
(PID.TID 0000.0001) %MON dynstat_wvel_sd              =   3.0041866107070E-05
(PID.TID 0000.0001) %MON dynstat_wvel_del2            =   6.7675556277978E-06
(PID.TID 0000.0001) %MON dynstat_theta_max            =   2.6141264395320E+01
(PID.TID 0000.0001) %MON dynstat_theta_min            =   1.8064646926732E+00
(PID.TID 0000.0001) %MON dynstat_theta_mean           =   5.4786608623419E+00
(PID.TID 0000.0001) %MON dynstat_theta_sd             =   4.5932211477181E+00
(PID.TID 0000.0001) %MON dynstat_theta_del2           =   5.1045586491523E-02
(PID.TID 0000.0001) %MON dynstat_salt_max             =   3.7404701896104E+01
(PID.TID 0000.0001) %MON dynstat_salt_min             =   3.4726820545600E+01
(PID.TID 0000.0001) %MON dynstat_salt_mean            =   3.5157572945071E+01
(PID.TID 0000.0001) %MON dynstat_salt_sd              =   4.1380992552745E-01
(PID.TID 0000.0001) %MON dynstat_salt_del2            =   1.2648579007195E-02
(PID.TID 0000.0001) %MON extforcing_qnet_max          =   5.1785995483398E+01
(PID.TID 0000.0001) %MON extforcing_qnet_min          =  -1.6640010070801E+02
(PID.TID 0000.0001) %MON extforcing_qnet_mean         =  -7.1740236129939E+01
(PID.TID 0000.0001) %MON extforcing_qnet_sd           =   5.0763762302510E+01
(PID.TID 0000.0001) %MON extforcing_qnet_del2         =   7.8684455467562E+00
(PID.TID 0000.0001) %MON extforcing_qsw_max           =  -1.3305171203613E+02
(PID.TID 0000.0001) %MON extforcing_qsw_min           =  -3.1786423492432E+02
(PID.TID 0000.0001) %MON extforcing_qsw_mean          =  -2.5092606306118E+02
(PID.TID 0000.0001) %MON extforcing_qsw_sd            =   4.2226722936044E+01
(PID.TID 0000.0001) %MON extforcing_qsw_del2          =   5.5239140646798E+00
(PID.TID 0000.0001) %MON extforcing_empmr_max         =   6.8301180591135E-05
(PID.TID 0000.0001) %MON extforcing_empmr_min         =   1.4154103348663E-05
(PID.TID 0000.0001) %MON extforcing_empmr_mean        =   4.2678582644125E-05
(PID.TID 0000.0001) %MON extforcing_empmr_sd          =   1.1674717394650E-05
(PID.TID 0000.0001) %MON extforcing_empmr_del2        =   2.2951058347733E-06
(PID.TID 0000.0001) %MON advcfl_uvel_max              =   3.7025580089870E-03
(PID.TID 0000.0001) %MON advcfl_vvel_max              =   2.2157922100368E-03
(PID.TID 0000.0001) %MON advcfl_wvel_max              =   4.5709916437775E-03
(PID.TID 0000.0001) %MON advcfl_W_hf_max              =   7.5435147610600E-03
(PID.TID 0000.0001) %MON pe_b_mean                    =   7.1267728591405E-06
(PID.TID 0000.0001) %MON ke_max                       =   2.5431216856887E-02
(PID.TID 0000.0001) %MON ke_mean                      =   5.9141445688235E-05
(PID.TID 0000.0001) %MON ke_vol                       =   3.6027486600263E+16
(PID.TID 0000.0001) %MON vort_r_min                   =  -5.0055896304978E-07
(PID.TID 0000.0001) %MON vort_r_max                   =   7.9551094352060E-07
(PID.TID 0000.0001) %MON vort_a_mean                  =   6.1944475191297E-05
(PID.TID 0000.0001) %MON vort_a_sd                    =   1.9197576495875E-05
(PID.TID 0000.0001) %MON vort_p_mean                  =   7.7881882182936E-05
(PID.TID 0000.0001) %MON vort_p_sd                    =   5.6365461824716E-05
(PID.TID 0000.0001) %MON surfExpan_theta_mean         =   1.5379319281815E-06
(PID.TID 0000.0001) %MON surfExpan_salt_mean          =  -7.9029307808253E-08
(PID.TID 0000.0001) // =======================================================
(PID.TID 0000.0001) // End MONITOR dynamic field statistics
(PID.TID 0000.0001) // =======================================================
time,SST,SSS,fu,fv,Q,E-P,i0,i1,a,b =   7.9200E+04  0.0000E+00  0.0000E+00  0.0000E+00  0.0000E+00  0.0000E+00  0.0000E+00     2     3  3.3333E-01  6.6667E-01
time,fu0,fu1,fu =   7.9200E+04  0.0000E+00  0.0000E+00  0.0000E+00  3.333333333333333E-01  6.666666666666667E-01
 cg2d: Sum(rhs),rhsMax =   7.10542735760100E-15  5.49958387055859E-01
(PID.TID 0000.0001)                    cg2d_init_res =    7.83790023452021E-02
(PID.TID 0000.0001)                       cg2d_iters =    44
(PID.TID 0000.0001)                         cg2d_res =    6.39509939944100E-14
(PID.TID 0000.0001) // =======================================================
(PID.TID 0000.0001) // Begin MONITOR dynamic field statistics
(PID.TID 0000.0001) // =======================================================
(PID.TID 0000.0001) %MON time_tsnumber                =                    17
(PID.TID 0000.0001) %MON time_secondsf                =   8.2800000000000E+04
(PID.TID 0000.0001) %MON dynstat_eta_max              =   1.5413044518396E-01
(PID.TID 0000.0001) %MON dynstat_eta_min              =  -2.2194154111479E-01
(PID.TID 0000.0001) %MON dynstat_eta_mean             =  -6.6179614399819E-17
(PID.TID 0000.0001) %MON dynstat_eta_sd               =   7.8160646615564E-02
(PID.TID 0000.0001) %MON dynstat_eta_del2             =   4.6831538223716E-03
(PID.TID 0000.0001) %MON dynstat_uvel_max             =   3.6327898546497E-02
(PID.TID 0000.0001) %MON dynstat_uvel_min             =  -2.2112778227184E-01
(PID.TID 0000.0001) %MON dynstat_uvel_mean            =  -1.0525612386295E-04
(PID.TID 0000.0001) %MON dynstat_uvel_sd              =   9.1822499170850E-03
(PID.TID 0000.0001) %MON dynstat_uvel_del2            =   2.6009047039104E-03
(PID.TID 0000.0001) %MON dynstat_vvel_max             =   1.0002661225516E-01
(PID.TID 0000.0001) %MON dynstat_vvel_min             =  -1.3172734905345E-01
(PID.TID 0000.0001) %MON dynstat_vvel_mean            =  -1.4859693913433E-04
(PID.TID 0000.0001) %MON dynstat_vvel_sd              =   6.3705354759718E-03
(PID.TID 0000.0001) %MON dynstat_vvel_del2            =   2.4120078247216E-03
(PID.TID 0000.0001) %MON dynstat_wvel_max             =   1.0997000900437E-04
(PID.TID 0000.0001) %MON dynstat_wvel_min             =  -1.7361456522201E-04
(PID.TID 0000.0001) %MON dynstat_wvel_mean            =  -5.6273935961672E-22
(PID.TID 0000.0001) %MON dynstat_wvel_sd              =   2.8587139546906E-05
(PID.TID 0000.0001) %MON dynstat_wvel_del2            =   6.3410108265292E-06
(PID.TID 0000.0001) %MON dynstat_theta_max            =   2.6147311847387E+01
(PID.TID 0000.0001) %MON dynstat_theta_min            =   1.8064671445489E+00
(PID.TID 0000.0001) %MON dynstat_theta_mean           =   5.4786749685125E+00
(PID.TID 0000.0001) %MON dynstat_theta_sd             =   4.5932668691845E+00
(PID.TID 0000.0001) %MON dynstat_theta_del2           =   5.1121685104718E-02
(PID.TID 0000.0001) %MON dynstat_salt_max             =   3.7405072206144E+01
(PID.TID 0000.0001) %MON dynstat_salt_min             =   3.4726826713837E+01
(PID.TID 0000.0001) %MON dynstat_salt_mean            =   3.5157574426619E+01
(PID.TID 0000.0001) %MON dynstat_salt_sd              =   4.1381352398039E-01
(PID.TID 0000.0001) %MON dynstat_salt_del2            =   1.2650065854762E-02
(PID.TID 0000.0001) %MON extforcing_qnet_max          =   5.2881464640299E+01
(PID.TID 0000.0001) %MON extforcing_qnet_min          =  -1.6767020924886E+02
(PID.TID 0000.0001) %MON extforcing_qnet_mean         =  -7.0784560829959E+01
(PID.TID 0000.0001) %MON extforcing_qnet_sd           =   5.0376618745466E+01
(PID.TID 0000.0001) %MON extforcing_qnet_del2         =   7.8122522952326E+00
(PID.TID 0000.0001) %MON extforcing_qsw_max           =  -1.3255586751302E+02
(PID.TID 0000.0001) %MON extforcing_qsw_min           =  -3.1758445231120E+02
(PID.TID 0000.0001) %MON extforcing_qsw_mean          =  -2.5137408645830E+02
(PID.TID 0000.0001) %MON extforcing_qsw_sd            =   4.2032969606024E+01
(PID.TID 0000.0001) %MON extforcing_qsw_del2          =   5.4213342525689E+00
(PID.TID 0000.0001) %MON extforcing_empmr_max         =   6.8865692161542E-05
(PID.TID 0000.0001) %MON extforcing_empmr_min         =   1.4238836827474E-05
(PID.TID 0000.0001) %MON extforcing_empmr_mean        =   4.3099855155366E-05
(PID.TID 0000.0001) %MON extforcing_empmr_sd          =   1.1631123659352E-05
(PID.TID 0000.0001) %MON extforcing_empmr_del2        =   2.2961928428759E-06
(PID.TID 0000.0001) %MON advcfl_uvel_max              =   3.7064251780439E-03
(PID.TID 0000.0001) %MON advcfl_vvel_max              =   2.1327092723668E-03
(PID.TID 0000.0001) %MON advcfl_wvel_max              =   4.8582397048059E-03
(PID.TID 0000.0001) %MON advcfl_W_hf_max              =   7.8962185190223E-03
(PID.TID 0000.0001) %MON pe_b_mean                    =   7.3639086933734E-06
(PID.TID 0000.0001) %MON ke_max                       =   2.5763122311271E-02
(PID.TID 0000.0001) %MON ke_mean                      =   5.5805263840251E-05
(PID.TID 0000.0001) %MON ke_vol                       =   3.6027486600263E+16
(PID.TID 0000.0001) %MON vort_r_min                   =  -4.9241082330460E-07
(PID.TID 0000.0001) %MON vort_r_max                   =   7.8632058942431E-07
(PID.TID 0000.0001) %MON vort_a_mean                  =   6.1944475191297E-05
(PID.TID 0000.0001) %MON vort_a_sd                    =   1.9197598128655E-05
(PID.TID 0000.0001) %MON vort_p_mean                  =   7.7881882182936E-05
(PID.TID 0000.0001) %MON vort_p_sd                    =   5.6366053227010E-05
(PID.TID 0000.0001) %MON surfExpan_theta_mean         =   1.2503682047033E-06
(PID.TID 0000.0001) %MON surfExpan_salt_mean          =  -8.5870696382543E-08
(PID.TID 0000.0001) // =======================================================
(PID.TID 0000.0001) // End MONITOR dynamic field statistics
(PID.TID 0000.0001) // =======================================================
time,SST,SSS,fu,fv,Q,E-P,i0,i1,a,b =   8.2800E+04  0.0000E+00  0.0000E+00  0.0000E+00  0.0000E+00  0.0000E+00  0.0000E+00     2     3  4.1667E-01  5.8333E-01
time,fu0,fu1,fu =   8.2800E+04  0.0000E+00  0.0000E+00  0.0000E+00  4.166666666666667E-01  5.833333333333333E-01
 cg2d: Sum(rhs),rhsMax =   1.24344978758018E-14  5.51916221385658E-01
(PID.TID 0000.0001)                    cg2d_init_res =    6.92741259091461E-02
(PID.TID 0000.0001)                       cg2d_iters =    44
(PID.TID 0000.0001)                         cg2d_res =    8.64618945800926E-14
(PID.TID 0000.0001) // =======================================================
(PID.TID 0000.0001) // Begin MONITOR dynamic field statistics
(PID.TID 0000.0001) // =======================================================
(PID.TID 0000.0001) %MON time_tsnumber                =                    18
(PID.TID 0000.0001) %MON time_secondsf                =   8.6400000000000E+04
(PID.TID 0000.0001) %MON dynstat_eta_max              =   1.5411148772882E-01
(PID.TID 0000.0001) %MON dynstat_eta_min              =  -2.2500255530807E-01
(PID.TID 0000.0001) %MON dynstat_eta_mean             =  -7.1694582266470E-17
(PID.TID 0000.0001) %MON dynstat_eta_sd               =   7.8791626631704E-02
(PID.TID 0000.0001) %MON dynstat_eta_del2             =   4.7264636987527E-03
(PID.TID 0000.0001) %MON dynstat_uvel_max             =   3.5221300065409E-02
(PID.TID 0000.0001) %MON dynstat_uvel_min             =  -2.1957784181211E-01
(PID.TID 0000.0001) %MON dynstat_uvel_mean            =  -7.0825836791276E-05
(PID.TID 0000.0001) %MON dynstat_uvel_sd              =   8.8700840842274E-03
(PID.TID 0000.0001) %MON dynstat_uvel_del2            =   2.3470127347894E-03
(PID.TID 0000.0001) %MON dynstat_vvel_max             =   1.1134981793517E-01
(PID.TID 0000.0001) %MON dynstat_vvel_min             =  -1.2617400516057E-01
(PID.TID 0000.0001) %MON dynstat_vvel_mean            =  -9.0743720082124E-05
(PID.TID 0000.0001) %MON dynstat_vvel_sd              =   6.1817593942786E-03
(PID.TID 0000.0001) %MON dynstat_vvel_del2            =   2.2904069864034E-03
(PID.TID 0000.0001) %MON dynstat_wvel_max             =   9.5869883872562E-05
(PID.TID 0000.0001) %MON dynstat_wvel_min             =  -1.7332113510807E-04
(PID.TID 0000.0001) %MON dynstat_wvel_mean            =  -1.1254787192334E-22
(PID.TID 0000.0001) %MON dynstat_wvel_sd              =   2.6907746449646E-05
(PID.TID 0000.0001) %MON dynstat_wvel_del2            =   5.8141464378653E-06
(PID.TID 0000.0001) %MON dynstat_theta_max            =   2.6153275977995E+01
(PID.TID 0000.0001) %MON dynstat_theta_min            =   1.8064698323285E+00
(PID.TID 0000.0001) %MON dynstat_theta_mean           =   5.4786893704534E+00
(PID.TID 0000.0001) %MON dynstat_theta_sd             =   4.5933137049941E+00
(PID.TID 0000.0001) %MON dynstat_theta_del2           =   5.1195457495593E-02
(PID.TID 0000.0001) %MON dynstat_salt_max             =   3.7405441714771E+01
(PID.TID 0000.0001) %MON dynstat_salt_min             =   3.4726833344173E+01
(PID.TID 0000.0001) %MON dynstat_salt_mean            =   3.5157575903326E+01
(PID.TID 0000.0001) %MON dynstat_salt_sd              =   4.1381714707574E-01
(PID.TID 0000.0001) %MON dynstat_salt_del2            =   1.2651226934729E-02
(PID.TID 0000.0001) %MON extforcing_qnet_max          =   5.4347905476888E+01
(PID.TID 0000.0001) %MON extforcing_qnet_min          =  -1.6894031778971E+02
(PID.TID 0000.0001) %MON extforcing_qnet_mean         =  -6.9828885529979E+01
(PID.TID 0000.0001) %MON extforcing_qnet_sd           =   5.0046698479458E+01
(PID.TID 0000.0001) %MON extforcing_qnet_del2         =   7.7698886273138E+00
(PID.TID 0000.0001) %MON extforcing_qsw_max           =  -1.3206002298991E+02
(PID.TID 0000.0001) %MON extforcing_qsw_min           =  -3.1730466969808E+02
(PID.TID 0000.0001) %MON extforcing_qsw_mean          =  -2.5182210985542E+02
(PID.TID 0000.0001) %MON extforcing_qsw_sd            =   4.1891013837849E+01
(PID.TID 0000.0001) %MON extforcing_qsw_del2          =   5.3378500037984E+00
(PID.TID 0000.0001) %MON extforcing_empmr_max         =   6.9430203731950E-05
(PID.TID 0000.0001) %MON extforcing_empmr_min         =   1.4323570306285E-05
(PID.TID 0000.0001) %MON extforcing_empmr_mean        =   4.3521127666606E-05
(PID.TID 0000.0001) %MON extforcing_empmr_sd          =   1.1605877390574E-05
(PID.TID 0000.0001) %MON extforcing_empmr_del2        =   2.2998797237074E-06
(PID.TID 0000.0001) %MON advcfl_uvel_max              =   3.6804459081150E-03
(PID.TID 0000.0001) %MON advcfl_vvel_max              =   2.0427988012453E-03
(PID.TID 0000.0001) %MON advcfl_wvel_max              =   5.0240054537691E-03
(PID.TID 0000.0001) %MON advcfl_W_hf_max              =   8.0028028556940E-03
(PID.TID 0000.0001) %MON pe_b_mean                    =   7.4832842261534E-06
(PID.TID 0000.0001) %MON ke_max                       =   2.5828790806972E-02
(PID.TID 0000.0001) %MON ke_mean                      =   5.2218184697804E-05
(PID.TID 0000.0001) %MON ke_vol                       =   3.6027486600263E+16
(PID.TID 0000.0001) %MON vort_r_min                   =  -4.6295197537400E-07
(PID.TID 0000.0001) %MON vort_r_max                   =   7.7474875808876E-07
(PID.TID 0000.0001) %MON vort_a_mean                  =   6.1944475191297E-05
(PID.TID 0000.0001) %MON vort_a_sd                    =   1.9197622222688E-05
(PID.TID 0000.0001) %MON vort_p_mean                  =   7.7881882182936E-05
(PID.TID 0000.0001) %MON vort_p_sd                    =   5.6366800341100E-05
(PID.TID 0000.0001) %MON surfExpan_theta_mean         =   6.9481911722166E-07
(PID.TID 0000.0001) %MON surfExpan_salt_mean          =  -6.2261928919952E-08
(PID.TID 0000.0001) // =======================================================
(PID.TID 0000.0001) // End MONITOR dynamic field statistics
(PID.TID 0000.0001) // =======================================================
time,SST,SSS,fu,fv,Q,E-P,i0,i1,a,b =   8.6400E+04  0.0000E+00  0.0000E+00  0.0000E+00  0.0000E+00  0.0000E+00  0.0000E+00     2     3  5.0000E-01  5.0000E-01
time,fu0,fu1,fu =   8.6400E+04  0.0000E+00  0.0000E+00  0.0000E+00  5.000000000000000E-01  5.000000000000000E-01
 cg2d: Sum(rhs),rhsMax =   7.10542735760100E-15  5.52147660666519E-01
(PID.TID 0000.0001)                    cg2d_init_res =    6.30180131928978E-02
(PID.TID 0000.0001)                       cg2d_iters =    44
(PID.TID 0000.0001)                         cg2d_res =    9.39098246283297E-14
(PID.TID 0000.0001) // =======================================================
(PID.TID 0000.0001) // Begin MONITOR dynamic field statistics
(PID.TID 0000.0001) // =======================================================
(PID.TID 0000.0001) %MON time_tsnumber                =                    19
(PID.TID 0000.0001) %MON time_secondsf                =   9.0000000000000E+04
(PID.TID 0000.0001) %MON dynstat_eta_max              =   1.5332231714019E-01
(PID.TID 0000.0001) %MON dynstat_eta_min              =  -2.2623576250100E-01
(PID.TID 0000.0001) %MON dynstat_eta_mean             =  -3.8604775066561E-17
(PID.TID 0000.0001) %MON dynstat_eta_sd               =   7.8797130622694E-02
(PID.TID 0000.0001) %MON dynstat_eta_del2             =   4.7695404191911E-03
(PID.TID 0000.0001) %MON dynstat_uvel_max             =   3.2498451525768E-02
(PID.TID 0000.0001) %MON dynstat_uvel_min             =  -2.1634823459331E-01
(PID.TID 0000.0001) %MON dynstat_uvel_mean            =  -4.2559273471127E-05
(PID.TID 0000.0001) %MON dynstat_uvel_sd              =   8.5216653623649E-03
(PID.TID 0000.0001) %MON dynstat_uvel_del2            =   2.1590502225397E-03
(PID.TID 0000.0001) %MON dynstat_vvel_max             =   1.2117383758137E-01
(PID.TID 0000.0001) %MON dynstat_vvel_min             =  -1.2033945695914E-01
(PID.TID 0000.0001) %MON dynstat_vvel_mean            =  -2.1827019809709E-05
(PID.TID 0000.0001) %MON dynstat_vvel_sd              =   6.0413550821945E-03
(PID.TID 0000.0001) %MON dynstat_vvel_del2            =   2.1433096379195E-03
(PID.TID 0000.0001) %MON dynstat_wvel_max             =   8.0621833440591E-05
(PID.TID 0000.0001) %MON dynstat_wvel_min             =  -1.7150301724607E-04
(PID.TID 0000.0001) %MON dynstat_wvel_mean            =   1.0129308473101E-21
(PID.TID 0000.0001) %MON dynstat_wvel_sd              =   2.5307655872523E-05
(PID.TID 0000.0001) %MON dynstat_wvel_del2            =   5.3976018641308E-06
(PID.TID 0000.0001) %MON dynstat_theta_max            =   2.6159168025482E+01
(PID.TID 0000.0001) %MON dynstat_theta_min            =   1.8064727610141E+00
(PID.TID 0000.0001) %MON dynstat_theta_mean           =   5.4787041978581E+00
(PID.TID 0000.0001) %MON dynstat_theta_sd             =   4.5933621284736E+00
(PID.TID 0000.0001) %MON dynstat_theta_del2           =   5.1261439365986E-02
(PID.TID 0000.0001) %MON dynstat_salt_max             =   3.7405808900212E+01
(PID.TID 0000.0001) %MON dynstat_salt_min             =   3.4726840408738E+01
(PID.TID 0000.0001) %MON dynstat_salt_mean            =   3.5157577355239E+01
(PID.TID 0000.0001) %MON dynstat_salt_sd              =   4.1382074209306E-01
(PID.TID 0000.0001) %MON dynstat_salt_del2            =   1.2652071816105E-02
(PID.TID 0000.0001) %MON extforcing_qnet_max          =   5.5814346313477E+01
(PID.TID 0000.0001) %MON extforcing_qnet_min          =  -1.7021042633057E+02
(PID.TID 0000.0001) %MON extforcing_qnet_mean         =  -6.8873210229999E+01
(PID.TID 0000.0001) %MON extforcing_qnet_sd           =   4.9775139382117E+01
(PID.TID 0000.0001) %MON extforcing_qnet_del2         =   7.7450188603894E+00
(PID.TID 0000.0001) %MON extforcing_qsw_max           =  -1.3156417846680E+02
(PID.TID 0000.0001) %MON extforcing_qsw_min           =  -3.1702488708496E+02
(PID.TID 0000.0001) %MON extforcing_qsw_mean          =  -2.5227013325255E+02
(PID.TID 0000.0001) %MON extforcing_qsw_sd            =   4.1801383341981E+01
(PID.TID 0000.0001) %MON extforcing_qsw_del2          =   5.2682711408643E+00
(PID.TID 0000.0001) %MON extforcing_empmr_max         =   6.9994715302357E-05
(PID.TID 0000.0001) %MON extforcing_empmr_min         =   1.4408303785096E-05
(PID.TID 0000.0001) %MON extforcing_empmr_mean        =   4.3942400177846E-05
(PID.TID 0000.0001) %MON extforcing_empmr_sd          =   1.1599098392661E-05
(PID.TID 0000.0001) %MON extforcing_empmr_del2        =   2.3051954866864E-06
(PID.TID 0000.0001) %MON advcfl_uvel_max              =   3.6263129656689E-03
(PID.TID 0000.0001) %MON advcfl_vvel_max              =   1.9618444372794E-03
(PID.TID 0000.0001) %MON advcfl_wvel_max              =   5.1003666033298E-03
(PID.TID 0000.0001) %MON advcfl_W_hf_max              =   7.9516347651988E-03
(PID.TID 0000.0001) %MON pe_b_mean                    =   7.4843297526721E-06
(PID.TID 0000.0001) %MON ke_max                       =   2.5620524905707E-02
(PID.TID 0000.0001) %MON ke_mean                      =   4.8731025040547E-05
(PID.TID 0000.0001) %MON ke_vol                       =   3.6027486600263E+16
(PID.TID 0000.0001) %MON vort_r_min                   =  -4.1611928346541E-07
(PID.TID 0000.0001) %MON vort_r_max                   =   7.6063268196937E-07
(PID.TID 0000.0001) %MON vort_a_mean                  =   6.1944475191297E-05
(PID.TID 0000.0001) %MON vort_a_sd                    =   1.9197641570091E-05
(PID.TID 0000.0001) %MON vort_p_mean                  =   7.7881882182936E-05
(PID.TID 0000.0001) %MON vort_p_sd                    =   5.6367604768837E-05
(PID.TID 0000.0001) %MON surfExpan_theta_mean         =   9.5864365506043E-08
(PID.TID 0000.0001) %MON surfExpan_salt_mean          =  -2.4882087233922E-08
(PID.TID 0000.0001) // =======================================================
(PID.TID 0000.0001) // End MONITOR dynamic field statistics
(PID.TID 0000.0001) // =======================================================
time,SST,SSS,fu,fv,Q,E-P,i0,i1,a,b =   9.0000E+04  0.0000E+00  0.0000E+00  0.0000E+00  0.0000E+00  0.0000E+00  0.0000E+00     2     3  5.8333E-01  4.1667E-01
time,fu0,fu1,fu =   9.0000E+04  0.0000E+00  0.0000E+00  0.0000E+00  5.833333333333334E-01  4.166666666666666E-01
 cg2d: Sum(rhs),rhsMax =  -1.77635683940025E-15  5.50497568613603E-01
(PID.TID 0000.0001)                    cg2d_init_res =    6.13181051022279E-02
(PID.TID 0000.0001)                       cg2d_iters =    44
(PID.TID 0000.0001)                         cg2d_res =    8.10452469178046E-14
(PID.TID 0000.0001) // =======================================================
(PID.TID 0000.0001) // Begin MONITOR dynamic field statistics
(PID.TID 0000.0001) // =======================================================
(PID.TID 0000.0001) %MON time_tsnumber                =                    20
(PID.TID 0000.0001) %MON time_secondsf                =   9.3600000000000E+04
(PID.TID 0000.0001) %MON dynstat_eta_max              =   1.5213805221142E-01
(PID.TID 0000.0001) %MON dynstat_eta_min              =  -2.2591636360989E-01
(PID.TID 0000.0001) %MON dynstat_eta_mean             =  -2.7574839333258E-17
(PID.TID 0000.0001) %MON dynstat_eta_sd               =   7.8375026595597E-02
(PID.TID 0000.0001) %MON dynstat_eta_del2             =   4.8094930494526E-03
(PID.TID 0000.0001) %MON dynstat_uvel_max             =   3.2066001906229E-02
(PID.TID 0000.0001) %MON dynstat_uvel_min             =  -2.1152928371425E-01
(PID.TID 0000.0001) %MON dynstat_uvel_mean            =  -2.7154690612710E-05
(PID.TID 0000.0001) %MON dynstat_uvel_sd              =   8.1620305982540E-03
(PID.TID 0000.0001) %MON dynstat_uvel_del2            =   2.0509704801903E-03
(PID.TID 0000.0001) %MON dynstat_vvel_max             =   1.2928219334106E-01
(PID.TID 0000.0001) %MON dynstat_vvel_min             =  -1.1437627383175E-01
(PID.TID 0000.0001) %MON dynstat_vvel_mean            =   3.5979112895540E-05
(PID.TID 0000.0001) %MON dynstat_vvel_sd              =   5.9690916564493E-03
(PID.TID 0000.0001) %MON dynstat_vvel_del2            =   2.0354543834181E-03
(PID.TID 0000.0001) %MON dynstat_wvel_max             =   6.6247445627583E-05
(PID.TID 0000.0001) %MON dynstat_wvel_min             =  -1.6830850172269E-04
(PID.TID 0000.0001) %MON dynstat_wvel_mean            =   9.0038297538675E-22
(PID.TID 0000.0001) %MON dynstat_wvel_sd              =   2.4133466544720E-05
(PID.TID 0000.0001) %MON dynstat_wvel_del2            =   5.2979523383093E-06
(PID.TID 0000.0001) %MON dynstat_theta_max            =   2.6164988164880E+01
(PID.TID 0000.0001) %MON dynstat_theta_min            =   1.8064759285568E+00
(PID.TID 0000.0001) %MON dynstat_theta_mean           =   5.4787193696513E+00
(PID.TID 0000.0001) %MON dynstat_theta_sd             =   4.5934118339586E+00
(PID.TID 0000.0001) %MON dynstat_theta_del2           =   5.1320191109793E-02
(PID.TID 0000.0001) %MON dynstat_salt_max             =   3.7406171910716E+01
(PID.TID 0000.0001) %MON dynstat_salt_min             =   3.4726847936652E+01
(PID.TID 0000.0001) %MON dynstat_salt_mean            =   3.5157578779064E+01
(PID.TID 0000.0001) %MON dynstat_salt_sd              =   4.1382429404822E-01
(PID.TID 0000.0001) %MON dynstat_salt_del2            =   1.2652718231945E-02
(PID.TID 0000.0001) %MON extforcing_qnet_max          =   5.7280787150065E+01
(PID.TID 0000.0001) %MON extforcing_qnet_min          =  -1.7148053487142E+02
(PID.TID 0000.0001) %MON extforcing_qnet_mean         =  -6.7917534930019E+01
(PID.TID 0000.0001) %MON extforcing_qnet_sd           =   4.9562900759258E+01
(PID.TID 0000.0001) %MON extforcing_qnet_del2         =   7.7331181872263E+00
(PID.TID 0000.0001) %MON extforcing_qsw_max           =  -1.3106833394368E+02
(PID.TID 0000.0001) %MON extforcing_qsw_min           =  -3.1762956492106E+02
(PID.TID 0000.0001) %MON extforcing_qsw_mean          =  -2.5271815664967E+02
(PID.TID 0000.0001) %MON extforcing_qsw_sd            =   4.1764415005147E+01
(PID.TID 0000.0001) %MON extforcing_qsw_del2          =   5.2155629425800E+00
(PID.TID 0000.0001) %MON extforcing_empmr_max         =   7.0559226872765E-05
(PID.TID 0000.0001) %MON extforcing_empmr_min         =   1.4493037263907E-05
(PID.TID 0000.0001) %MON extforcing_empmr_mean        =   4.4363672689087E-05
(PID.TID 0000.0001) %MON extforcing_empmr_sd          =   1.1610819012107E-05
(PID.TID 0000.0001) %MON extforcing_empmr_del2        =   2.3117338043803E-06
(PID.TID 0000.0001) %MON advcfl_uvel_max              =   3.5455402979995E-03
(PID.TID 0000.0001) %MON advcfl_vvel_max              =   2.0931213940890E-03
(PID.TID 0000.0001) %MON advcfl_wvel_max              =   5.1216143092919E-03
(PID.TID 0000.0001) %MON advcfl_W_hf_max              =   7.8347772851318E-03
(PID.TID 0000.0001) %MON pe_b_mean                    =   7.4043597303370E-06
(PID.TID 0000.0001) %MON ke_max                       =   2.5135527457418E-02
(PID.TID 0000.0001) %MON ke_mean                      =   4.5648016145065E-05
(PID.TID 0000.0001) %MON ke_vol                       =   3.6027486600263E+16
(PID.TID 0000.0001) %MON vort_r_min                   =  -3.8435344258464E-07
(PID.TID 0000.0001) %MON vort_r_max                   =   7.4348227152080E-07
(PID.TID 0000.0001) %MON vort_a_mean                  =   6.1944475191297E-05
(PID.TID 0000.0001) %MON vort_a_sd                    =   1.9197650980691E-05
(PID.TID 0000.0001) %MON vort_p_mean                  =   7.7881882182936E-05
(PID.TID 0000.0001) %MON vort_p_sd                    =   5.6368367448533E-05
(PID.TID 0000.0001) %MON surfExpan_theta_mean         =  -3.6760834353679E-07
(PID.TID 0000.0001) %MON surfExpan_salt_mean          =   1.2256786429290E-08
(PID.TID 0000.0001) // =======================================================
(PID.TID 0000.0001) // End MONITOR dynamic field statistics
(PID.TID 0000.0001) // =======================================================
(PID.TID 0000.0001) %CHECKPOINT        20 ckptA
(PID.TID 0000.0001)   Seconds in section "ALL                    [THE_MODEL_MAIN]":
(PID.TID 0000.0001)           User time:  5.72812922
(PID.TID 0000.0001)         System time:  0.378943
(PID.TID 0000.0001)     Wall clock time:  20.6199579
(PID.TID 0000.0001)          No. starts: 1
(PID.TID 0000.0001)           No. stops: 1
(PID.TID 0000.0001)   Seconds in section "INITIALISE_FIXED       [THE_MODEL_MAIN]":
(PID.TID 0000.0001)           User time:  0.0909859987
(PID.TID 0000.0001)         System time:  0.0459930002
(PID.TID 0000.0001)     Wall clock time:  0.566874981
(PID.TID 0000.0001)          No. starts: 1
(PID.TID 0000.0001)           No. stops: 1
(PID.TID 0000.0001)   Seconds in section "THE_MAIN_LOOP          [THE_MODEL_MAIN]":
(PID.TID 0000.0001)           User time:  5.58315095
(PID.TID 0000.0001)         System time:  0.235964004
(PID.TID 0000.0001)     Wall clock time:  19.686527
(PID.TID 0000.0001)          No. starts: 1
(PID.TID 0000.0001)           No. stops: 1
(PID.TID 0000.0001)   Seconds in section "INITIALISE_VARIA    [THE_MAIN_LOOP]":
(PID.TID 0000.0001)           User time:  0.375943013
(PID.TID 0000.0001)         System time:  0.0539919995
(PID.TID 0000.0001)     Wall clock time:  0.786428928
(PID.TID 0000.0001)          No. starts: 1
(PID.TID 0000.0001)           No. stops: 1
(PID.TID 0000.0001)   Seconds in section "MAIN LOOP           [THE_MAIN_LOOP]":
(PID.TID 0000.0001)           User time:  5.20620793
(PID.TID 0000.0001)         System time:  0.181972004
(PID.TID 0000.0001)     Wall clock time:  18.899956
(PID.TID 0000.0001)          No. starts: 1
(PID.TID 0000.0001)           No. stops: 1
(PID.TID 0000.0001)   Seconds in section "FORWARD_STEP        [THE_MAIN_LOOP]":
(PID.TID 0000.0001)           User time:  5.20620793
(PID.TID 0000.0001)         System time:  0.181972004
(PID.TID 0000.0001)     Wall clock time:  18.8990736
(PID.TID 0000.0001)          No. starts: 20
(PID.TID 0000.0001)           No. stops: 20
(PID.TID 0000.0001)   Seconds in section "DO_STATEVARS_DIAGS  [FORWARD_STEP]":
(PID.TID 0000.0001)           User time:  0.000999927521
(PID.TID 0000.0001)         System time:  0.
(PID.TID 0000.0001)     Wall clock time:  0.00221514702
(PID.TID 0000.0001)          No. starts: 40
(PID.TID 0000.0001)           No. stops: 40
(PID.TID 0000.0001)   Seconds in section "LOAD_FIELDS_DRIVER  [FORWARD_STEP]":
(PID.TID 0000.0001)           User time:  0.0129977465
(PID.TID 0000.0001)         System time:  0.00199900568
(PID.TID 0000.0001)     Wall clock time:  0.0174441338
(PID.TID 0000.0001)          No. starts: 20
(PID.TID 0000.0001)           No. stops: 20
(PID.TID 0000.0001)   Seconds in section "EXTERNAL_FLDS_LOAD [LOAD_FLDS_DRIVER]":
(PID.TID 0000.0001)           User time:  0.0119977593
(PID.TID 0000.0001)         System time:  0.00199900568
(PID.TID 0000.0001)     Wall clock time:  0.0158364773
(PID.TID 0000.0001)          No. starts: 20
(PID.TID 0000.0001)           No. stops: 20
(PID.TID 0000.0001)   Seconds in section "DO_ATMOSPHERIC_PHYS [FORWARD_STEP]":
(PID.TID 0000.0001)           User time:  0.00200033188
(PID.TID 0000.0001)         System time:  0.
(PID.TID 0000.0001)     Wall clock time:  0.000797510147
(PID.TID 0000.0001)          No. starts: 20
(PID.TID 0000.0001)           No. stops: 20
(PID.TID 0000.0001)   Seconds in section "DO_OCEANIC_PHYS     [FORWARD_STEP]":
(PID.TID 0000.0001)           User time:  1.22980958
(PID.TID 0000.0001)         System time:  0.00299997628
(PID.TID 0000.0001)     Wall clock time:  2.21888947
(PID.TID 0000.0001)          No. starts: 20
(PID.TID 0000.0001)           No. stops: 20
(PID.TID 0000.0001)   Seconds in section "STATEKPP      [KPP_CALC]":
(PID.TID 0000.0001)           User time:  0.218966514
(PID.TID 0000.0001)         System time:  0.00100000203
(PID.TID 0000.0001)     Wall clock time:  0.323369265
(PID.TID 0000.0001)          No. starts: 40
(PID.TID 0000.0001)           No. stops: 40
(PID.TID 0000.0001)   Seconds in section "KPPMIX [KPP_CALC]":
(PID.TID 0000.0001)           User time:  0.490926623
(PID.TID 0000.0001)         System time:  0.00199997425
(PID.TID 0000.0001)     Wall clock time:  1.00792599
(PID.TID 0000.0001)          No. starts: 40
(PID.TID 0000.0001)           No. stops: 40
(PID.TID 0000.0001)   Seconds in section "THERMODYNAMICS      [FORWARD_STEP]":
(PID.TID 0000.0001)           User time:  0.915861547
(PID.TID 0000.0001)         System time:  0.00600000471
(PID.TID 0000.0001)     Wall clock time:  1.6588099
(PID.TID 0000.0001)          No. starts: 20
(PID.TID 0000.0001)           No. stops: 20
(PID.TID 0000.0001)   Seconds in section "DYNAMICS            [FORWARD_STEP]":
(PID.TID 0000.0001)           User time:  2.12767482
(PID.TID 0000.0001)         System time:  0.00999801606
(PID.TID 0000.0001)     Wall clock time:  4.31745315
(PID.TID 0000.0001)          No. starts: 20
(PID.TID 0000.0001)           No. stops: 20
(PID.TID 0000.0001)   Seconds in section "SOLVE_FOR_PRESSURE  [FORWARD_STEP]":
(PID.TID 0000.0001)           User time:  0.213972509
(PID.TID 0000.0001)         System time:  0.
(PID.TID 0000.0001)     Wall clock time:  0.31453824
(PID.TID 0000.0001)          No. starts: 20
(PID.TID 0000.0001)           No. stops: 20
(PID.TID 0000.0001)   Seconds in section "MOM_CORRECTION_STEP [FORWARD_STEP]":
(PID.TID 0000.0001)           User time:  0.0699874759
(PID.TID 0000.0001)         System time:  0.000999987125
(PID.TID 0000.0001)     Wall clock time:  0.269886494
(PID.TID 0000.0001)          No. starts: 20
(PID.TID 0000.0001)           No. stops: 20
(PID.TID 0000.0001)   Seconds in section "TRC_CORRECTION_STEP [FORWARD_STEP]":
(PID.TID 0000.0001)           User time:  0.0269949436
(PID.TID 0000.0001)         System time:  0.
(PID.TID 0000.0001)     Wall clock time:  0.0278391838
(PID.TID 0000.0001)          No. starts: 20
(PID.TID 0000.0001)           No. stops: 20
(PID.TID 0000.0001)   Seconds in section "BLOCKING_EXCHANGES  [FORWARD_STEP]":
(PID.TID 0000.0001)           User time:  0.116984248
(PID.TID 0000.0001)         System time:  0.000998996198
(PID.TID 0000.0001)     Wall clock time:  0.119905949
(PID.TID 0000.0001)          No. starts: 20
(PID.TID 0000.0001)           No. stops: 20
(PID.TID 0000.0001)   Seconds in section "DO_STATEVARS_TAVE   [FORWARD_STEP]":
(PID.TID 0000.0001)           User time:  0.000998973846
(PID.TID 0000.0001)         System time:  0.
(PID.TID 0000.0001)     Wall clock time:  0.000807285309
(PID.TID 0000.0001)          No. starts: 20
(PID.TID 0000.0001)           No. stops: 20
(PID.TID 0000.0001)   Seconds in section "MONITOR             [FORWARD_STEP]":
(PID.TID 0000.0001)           User time:  0.353947937
(PID.TID 0000.0001)         System time:  0.00300000608
(PID.TID 0000.0001)     Wall clock time:  0.820403099
(PID.TID 0000.0001)          No. starts: 20
(PID.TID 0000.0001)           No. stops: 20
(PID.TID 0000.0001)   Seconds in section "DO_THE_MODEL_IO     [FORWARD_STEP]":
(PID.TID 0000.0001)           User time:  0.115980089
(PID.TID 0000.0001)         System time:  0.155976012
(PID.TID 0000.0001)     Wall clock time:  9.11558938
(PID.TID 0000.0001)          No. starts: 20
(PID.TID 0000.0001)           No. stops: 20
(PID.TID 0000.0001)   Seconds in section "DO_WRITE_PICKUP     [FORWARD_STEP]":
(PID.TID 0000.0001)           User time:  0.00199997425
(PID.TID 0000.0001)         System time:  0.
(PID.TID 0000.0001)     Wall clock time:  0.000856399536
(PID.TID 0000.0001)          No. starts: 20
(PID.TID 0000.0001)           No. stops: 20
(PID.TID 0000.0001)   Seconds in section "DO_WRITE_PICKUP        [THE_MODEL_MAIN]":
(PID.TID 0000.0001)           User time:  0.0539922714
(PID.TID 0000.0001)         System time:  0.0969859958
(PID.TID 0000.0001)     Wall clock time:  0.366367102
(PID.TID 0000.0001)          No. starts: 1
(PID.TID 0000.0001)           No. stops: 1
(PID.TID 0000.0001) // ======================================================
(PID.TID 0000.0001) // Tile <-> Tile communication statistics
(PID.TID 0000.0001) // ======================================================
(PID.TID 0000.0001) // o Tile number: 000001
(PID.TID 0000.0001) //         No. X exchanges =              0
(PID.TID 0000.0001) //            Max. X spins =              0
(PID.TID 0000.0001) //            Min. X spins =     1000000000
(PID.TID 0000.0001) //          Total. X spins =              0
(PID.TID 0000.0001) //            Avg. X spins =       0.00E+00
(PID.TID 0000.0001) //         No. Y exchanges =              0
(PID.TID 0000.0001) //            Max. Y spins =              0
(PID.TID 0000.0001) //            Min. Y spins =     1000000000
(PID.TID 0000.0001) //          Total. Y spins =              0
(PID.TID 0000.0001) //            Avg. Y spins =       0.00E+00
(PID.TID 0000.0001) // o Tile number: 000002
(PID.TID 0000.0001) //         No. X exchanges =              0
(PID.TID 0000.0001) //            Max. X spins =              0
(PID.TID 0000.0001) //            Min. X spins =     1000000000
(PID.TID 0000.0001) //          Total. X spins =              0
(PID.TID 0000.0001) //            Avg. X spins =       0.00E+00
(PID.TID 0000.0001) //         No. Y exchanges =              0
(PID.TID 0000.0001) //            Max. Y spins =              0
(PID.TID 0000.0001) //            Min. Y spins =     1000000000
(PID.TID 0000.0001) //          Total. Y spins =              0
(PID.TID 0000.0001) //            Avg. Y spins =       0.00E+00
(PID.TID 0000.0001) // o Thread number: 000001
(PID.TID 0000.0001) //            No. barriers =          19884
(PID.TID 0000.0001) //      Max. barrier spins =              1
(PID.TID 0000.0001) //      Min. barrier spins =              1
(PID.TID 0000.0001) //     Total barrier spins =          19884
(PID.TID 0000.0001) //      Avg. barrier spins =       1.00E+00
