(PID.TID 0000.0001) 
(PID.TID 0000.0001) // ======================================================
(PID.TID 0000.0001) //                      MITgcm UV
(PID.TID 0000.0001) //                      =========
(PID.TID 0000.0001) // ======================================================
(PID.TID 0000.0001) // execution environment starting up...
(PID.TID 0000.0001) 
(PID.TID 0000.0001) // MITgcmUV version:  checkpoint61t
(PID.TID 0000.0001) // Build user:        jmc
(PID.TID 0000.0001) // Build host:        faulks
(PID.TID 0000.0001) // Build date:        Tue Aug  4 18:21:51 EDT 2009
(PID.TID 0000.0001) 
(PID.TID 0000.0001) // =======================================================
(PID.TID 0000.0001) // Execution Environment parameter file "eedata"
(PID.TID 0000.0001) // =======================================================
(PID.TID 0000.0001) ># Example "eedata" file
(PID.TID 0000.0001) ># Lines beginning "#" are comments
(PID.TID 0000.0001) ># nTx - No. threads per process in X
(PID.TID 0000.0001) ># nTy - No. threads per process in Y
(PID.TID 0000.0001) > &EEPARMS
(PID.TID 0000.0001) > nTx=1,
(PID.TID 0000.0001) > nTy=1,
(PID.TID 0000.0001) > &
(PID.TID 0000.0001) ># Note: Some systems use & as the
(PID.TID 0000.0001) ># namelist terminator. Other systems
(PID.TID 0000.0001) ># use a / character (as shown here).
(PID.TID 0000.0001) 
(PID.TID 0000.0001) // =======================================================
(PID.TID 0000.0001) // Computational Grid Specification ( see files "SIZE.h" )
(PID.TID 0000.0001) //                                  ( and "eedata"       )
(PID.TID 0000.0001) // =======================================================
(PID.TID 0000.0001)      nPx =    1 ; /* No. processes in X */
(PID.TID 0000.0001)      nPy =    1 ; /* No. processes in Y */
(PID.TID 0000.0001)      nSx =    2 ; /* No. tiles in X per process */
(PID.TID 0000.0001)      nSy =    2 ; /* No. tiles in Y per process */
(PID.TID 0000.0001)      sNx =   10 ; /* Tile size in X */
(PID.TID 0000.0001)      sNy =    8 ; /* Tile size in Y */
(PID.TID 0000.0001)      OLx =    4 ; /* Tile overlap distance in X */
(PID.TID 0000.0001)      OLy =    4 ; /* Tile overlap distance in Y */
(PID.TID 0000.0001)      nTx =    1 ; /* No. threads in X per process */
(PID.TID 0000.0001)      nTy =    1 ; /* No. threads in Y per process */
(PID.TID 0000.0001)       Nr =   23 ; /* No. levels in the vertical   */
(PID.TID 0000.0001)       Nx =   20 ; /* Total domain size in X ( = nPx*nSx*sNx ) */
(PID.TID 0000.0001)       Ny =   16 ; /* Total domain size in Y ( = nPy*nSy*sNy ) */
(PID.TID 0000.0001)   nTiles =    4 ; /* Total no. tiles per process ( = nSx*nSy ) */
(PID.TID 0000.0001)   nProcs =    1 ; /* Total no. processes ( = nPx*nPy ) */
(PID.TID 0000.0001) nThreads =    1 ; /* Total no. threads per process ( = nTx*nTy ) */
(PID.TID 0000.0001) usingMPI =    F ; /* Flag used to control whether MPI is in use */
(PID.TID 0000.0001)                   /*  note: To execute a program with MPI calls */
(PID.TID 0000.0001)                   /*  it must be launched appropriately e.g     */
(PID.TID 0000.0001)                   /*  "mpirun -np 64 ......"                    */
(PID.TID 0000.0001) useCoupler=    F ;/* Flag used to control communications with   */
(PID.TID 0000.0001)                   /*  other model components, through a coupler */
(PID.TID 0000.0001) printMapIncludesZeros=    F ; /* print zeros in Std.Output maps */
(PID.TID 0000.0001) maxLengthPrt1D=   65 /* maxLength of 1D array printed to StdOut */
(PID.TID 0000.0001) 
(PID.TID 0000.0001) // ======================================================
(PID.TID 0000.0001) // Mapping of tiles to threads
(PID.TID 0000.0001) // ======================================================
(PID.TID 0000.0001) // -o- Thread   1, tiles (   1:   2,   1:   2)
(PID.TID 0000.0001) 
(PID.TID 0000.0001) // ======================================================
(PID.TID 0000.0001) // Tile <-> Tile connectvity table
(PID.TID 0000.0001) // ======================================================
(PID.TID 0000.0001) // Tile number: 000001 (process no. = 000001)
(PID.TID 0000.0001) //        WEST: Tile = 000002, Process = 000001, Comm = put
(PID.TID 0000.0001) //                bi = 000002, bj = 000001
(PID.TID 0000.0001) //        EAST: Tile = 000002, Process = 000001, Comm = put
(PID.TID 0000.0001) //                bi = 000002, bj = 000001
(PID.TID 0000.0001) //       SOUTH: Tile = 000003, Process = 000001, Comm = put
(PID.TID 0000.0001) //                bi = 000001, bj = 000002
(PID.TID 0000.0001) //       NORTH: Tile = 000003, Process = 000001, Comm = put
(PID.TID 0000.0001) //                bi = 000001, bj = 000002
(PID.TID 0000.0001) // Tile number: 000002 (process no. = 000001)
(PID.TID 0000.0001) //        WEST: Tile = 000001, Process = 000001, Comm = put
(PID.TID 0000.0001) //                bi = 000001, bj = 000001
(PID.TID 0000.0001) //        EAST: Tile = 000001, Process = 000001, Comm = put
(PID.TID 0000.0001) //                bi = 000001, bj = 000001
(PID.TID 0000.0001) //       SOUTH: Tile = 000004, Process = 000001, Comm = put
(PID.TID 0000.0001) //                bi = 000002, bj = 000002
(PID.TID 0000.0001) //       NORTH: Tile = 000004, Process = 000001, Comm = put
(PID.TID 0000.0001) //                bi = 000002, bj = 000002
(PID.TID 0000.0001) // Tile number: 000003 (process no. = 000001)
(PID.TID 0000.0001) //        WEST: Tile = 000004, Process = 000001, Comm = put
(PID.TID 0000.0001) //                bi = 000002, bj = 000002
(PID.TID 0000.0001) //        EAST: Tile = 000004, Process = 000001, Comm = put
(PID.TID 0000.0001) //                bi = 000002, bj = 000002
(PID.TID 0000.0001) //       SOUTH: Tile = 000001, Process = 000001, Comm = put
(PID.TID 0000.0001) //                bi = 000001, bj = 000001
(PID.TID 0000.0001) //       NORTH: Tile = 000001, Process = 000001, Comm = put
(PID.TID 0000.0001) //                bi = 000001, bj = 000001
(PID.TID 0000.0001) // Tile number: 000004 (process no. = 000001)
(PID.TID 0000.0001) //        WEST: Tile = 000003, Process = 000001, Comm = put
(PID.TID 0000.0001) //                bi = 000001, bj = 000002
(PID.TID 0000.0001) //        EAST: Tile = 000003, Process = 000001, Comm = put
(PID.TID 0000.0001) //                bi = 000001, bj = 000002
(PID.TID 0000.0001) //       SOUTH: Tile = 000002, Process = 000001, Comm = put
(PID.TID 0000.0001) //                bi = 000002, bj = 000001
(PID.TID 0000.0001) //       NORTH: Tile = 000002, Process = 000001, Comm = put
(PID.TID 0000.0001) //                bi = 000002, bj = 000001
(PID.TID 0000.0001) 
(PID.TID 0000.0001) // =======================================================
(PID.TID 0000.0001) // Model parameter file "data"
(PID.TID 0000.0001) // =======================================================
(PID.TID 0000.0001) ># ====================
(PID.TID 0000.0001) ># | Model parameters |
(PID.TID 0000.0001) ># ====================
(PID.TID 0000.0001) >#
(PID.TID 0000.0001) ># Continuous equation parameters
(PID.TID 0000.0001) >#
(PID.TID 0000.0001) >#   tRef            - Reference vertical potential temperature          (deg C)
(PID.TID 0000.0001) >#   sRef            - Reference vertical salinity                         (PSU)
(PID.TID 0000.0001) >#   viscAh          - Horizontal eddy viscosity coefficient             (m^2/s)
(PID.TID 0000.0001) >#   viscAz          - Vertical eddy viscosity coefficient               (m^2/s)
(PID.TID 0000.0001) >#   diffKhT         - Horizontal temperature diffusivity                (m^2/s)
(PID.TID 0000.0001) >#   diffKzT         - Vertical temperature diffusivity                  (m^2/s)
(PID.TID 0000.0001) >#   diffKhS         - Horizontal salt diffusivity                       (m^2/s)
(PID.TID 0000.0001) >#   diffKzS         - Vertical salt diffusivity                         (m^2/s)
(PID.TID 0000.0001) >#   tAlpha          - Linear EOS thermal expansion coefficient           (1/oC)
(PID.TID 0000.0001) >#   sBeta           - Linear EOS haline contraction coefficient         (1/ppt)
(PID.TID 0000.0001) >#   gravity         - Acceleration due to gravity                       (m/s^2)
(PID.TID 0000.0001) >#   rigidLid        - Set to true to use rigid lid
(PID.TID 0000.0001) >#   implicitFreeSurface - Set to true to use implicit free surface
(PID.TID 0000.0001) >#   eosType         - Flag for linear or polynomial equation of state
(PID.TID 0000.0001) >#   GMkbackground   - background value of GM/Redi coefficient
(PID.TID 0000.0001) >#   momAdvection    - On/Off flag for momentum self transport
(PID.TID 0000.0001) >#   momViscosity    - On/Off flag for momentum mixing
(PID.TID 0000.0001) >#
(PID.TID 0000.0001) > &PARM01
(PID.TID 0000.0001) > viscAz             = 1.E-3,
(PID.TID 0000.0001) > diffKzT            = 1.E-5,
(PID.TID 0000.0001) > diffKzS            = 1.E-5,
(PID.TID 0000.0001) > viscAh             = 5.0E4,
(PID.TID 0000.0001) > viscA4             = 5.e12,
(PID.TID 0000.0001) > diffKhT            = 1.0E3,
(PID.TID 0000.0001) > diffKhS            = 1.0E3,
(PID.TID 0000.0001) >#rotationPeriod     = 86400.,
(PID.TID 0000.0001) > tAlpha             = 2.E-4,
(PID.TID 0000.0001) > sBeta              = 7.4E-4,
(PID.TID 0000.0001) > gravity            = 9.81,
(PID.TID 0000.0001) > rigidLid           = .FALSE.,
(PID.TID 0000.0001) > implicitFreeSurface= .TRUE.,
(PID.TID 0000.0001) > implicitDiffusion  = .TRUE.,
(PID.TID 0000.0001) > useCDscheme        = .TRUE.,
(PID.TID 0000.0001) > useNHMTerms        = .TRUE.,
(PID.TID 0000.0001) > eosType            = 'POLY3',
(PID.TID 0000.0001) > momAdvection       = .TRUE.,
(PID.TID 0000.0001) > momViscosity       = .TRUE.,
(PID.TID 0000.0001) > implicitDiffusion  = .TRUE.,
(PID.TID 0000.0001) > implicitViscosity  = .TRUE.,
(PID.TID 0000.0001) > no_slip_bottom     = .TRUE.,
(PID.TID 0000.0001) > no_slip_sides      = .FALSE.,
(PID.TID 0000.0001) > readBinaryPrec     = 32,
(PID.TID 0000.0001) >#- not safe to use globalFiles in multi-processors runs
(PID.TID 0000.0001) >#globalFiles        = .TRUE.
(PID.TID 0000.0001) > &
(PID.TID 0000.0001) >
(PID.TID 0000.0001) ># Elliptic solver parameters
(PID.TID 0000.0001) >#
(PID.TID 0000.0001) >#   cg2dMaxIters       - Maximum number of 2d solver iterations
(PID.TID 0000.0001) >#   cg2dTargetResidual - Solver target residual
(PID.TID 0000.0001) >#
(PID.TID 0000.0001) > &PARM02
(PID.TID 0000.0001) > cg2dMaxIters       = 1000,
(PID.TID 0000.0001) > cg2dTargetResidual = 1.E-13,
(PID.TID 0000.0001) > &
(PID.TID 0000.0001) >
(PID.TID 0000.0001) ># Time stepping parameters
(PID.TID 0000.0001) >#
(PID.TID 0000.0001) >#   startTime         - Integration starting time                (s)
(PID.TID 0000.0001) >#   endTime           - Integration ending time                  (s)
(PID.TID 0000.0001) >#   tauCD             - CD scheme coupling timescale             (s)
(PID.TID 0000.0001) >#   deltaTMom         - Timestep for momemtum equations          (s)
(PID.TID 0000.0001) >#   deltaTtracer      - Tracer timestep                          (s)
(PID.TID 0000.0001) >#   deltaTClock       - Timestep used as model "clock"           (s)
(PID.TID 0000.0001) >#   abEps             - Adams-Bashforth stabilising factor
(PID.TID 0000.0001) >#   pChkPtFreq        - Frequency of permanent check pointing    (s)
(PID.TID 0000.0001) >#   chkPtFreq         - Frequency of rolling check pointing      (s)
(PID.TID 0000.0001) >#   dumpFreq          - Frequency at which model state is stored (s)
(PID.TID 0000.0001) >#   tauThetaClimRelax - Relaxation to climatology time scale     (s)
(PID.TID 0000.0001) >#   tauSaltClimRelax  - Relaxation to climatology time scale     (s)
(PID.TID 0000.0001) >#
(PID.TID 0000.0001) > &PARM03
(PID.TID 0000.0001) > baseTime   = 21600.,
(PID.TID 0000.0001) > startTime  = 21600.,
(PID.TID 0000.0001) > endTime    = 93600.,
(PID.TID 0000.0001) > deltaTmom  = 3600.0,
(PID.TID 0000.0001) > TauCD      = 172800.,
(PID.TID 0000.0001) > cAdjFreq   = 0.,
(PID.TID 0000.0001) > abEps      = 0.1,
(PID.TID 0000.0001) > pChkptFreq = 0.0,
(PID.TID 0000.0001) > chkptFreq  = 0.0,
(PID.TID 0000.0001) > dumpFreq   = 86400.,
(PID.TID 0000.0001) > tauSaltClimRelax = 2592000.0,
(PID.TID 0000.0001) > tauThetaClimRelax = 2592000.0,
(PID.TID 0000.0001) > periodicExternalForcing = .TRUE.,
(PID.TID 0000.0001) > externForcingPeriod = 43200.0,
(PID.TID 0000.0001) > externForcingCycle = 2764800.0,
(PID.TID 0000.0001) > monitorFreq=1.,
(PID.TID 0000.0001) > &
(PID.TID 0000.0001) >
(PID.TID 0000.0001) ># Gridding parameters
(PID.TID 0000.0001) >#
(PID.TID 0000.0001) >#   usingSphericalPolarGrid - On/Off flag for spherical polar coordinates
(PID.TID 0000.0001) >#   delX                    - Zonal grid spacing         (degrees)
(PID.TID 0000.0001) >#   delY                    - Meridional grid spacing    (degrees)
(PID.TID 0000.0001) >#   delZ                    - Vertical grid spacing      (m)
(PID.TID 0000.0001) >#   ygOrigin                - Southern boundary latitude (degrees)
(PID.TID 0000.0001) >#
(PID.TID 0000.0001) > &PARM04
(PID.TID 0000.0001) > usingSphericalPolarGrid = .TRUE.,
(PID.TID 0000.0001) > delX   = 20*2.,
(PID.TID 0000.0001) > delY   = 16*2.,
(PID.TID 0000.0001) > delZ= 10., 10., 15., 20., 20., 25., 35., 50., 75.,
(PID.TID 0000.0001) >       100., 150., 200., 275., 350., 415., 450.,
(PID.TID 0000.0001) >       500., 500., 500., 500., 500., 500., 500.,
(PID.TID 0000.0001) > ygOrigin = 10.,
(PID.TID 0000.0001) > xgOrigin= -42.,
(PID.TID 0000.0001) > &
(PID.TID 0000.0001) >
(PID.TID 0000.0001) ># Input datasets
(PID.TID 0000.0001) >#
(PID.TID 0000.0001) >#   bathyFile       - File containing bathymetry
(PID.TID 0000.0001) >#   hydrogThetaFile - File containing initial potential temperature data
(PID.TID 0000.0001) >#   hydrogSaltFile  - File containing initial salinity data
(PID.TID 0000.0001) >#   zonalWindFile   - File containing zonal wind data
(PID.TID 0000.0001) >#   meridWindFile   - File containing meridional wind data
(PID.TID 0000.0001) >#   thetaClimFile   - File containing theta climatology used for relaxation
(PID.TID 0000.0001) >#   saltClimFile    - File containing salt climatology used for relaxation
(PID.TID 0000.0001) >#
(PID.TID 0000.0001) > &PARM05
(PID.TID 0000.0001) > bathyFile       = 'kf_topog',
(PID.TID 0000.0001) > hydrogThetaFile = 'kf_climtheta',
(PID.TID 0000.0001) > hydrogSaltFile  = 'kf_climsalt',
(PID.TID 0000.0001) > zonalWindFile   = 'kf_tx',
(PID.TID 0000.0001) > meridWindFile   = 'kf_ty',
(PID.TID 0000.0001) > thetaClimFile   = 'kf_sst',
(PID.TID 0000.0001) > saltClimFile    = 'kf_sss',
(PID.TID 0000.0001) > surfQFile       = 'kf_qnet',
(PID.TID 0000.0001) > EmPmRFile       = 'kf_empmr',
(PID.TID 0000.0001) > surfQswFile     = 'kf_sw',
(PID.TID 0000.0001) > &
(PID.TID 0000.0001) 
(PID.TID 0000.0001) S/R INI_PARMS ; starts to read PARM01
(PID.TID 0000.0001) S/R INI_PARMS ; read PARM01 : OK
(PID.TID 0000.0001) S/R INI_PARMS ; starts to read PARM02
(PID.TID 0000.0001) S/R INI_PARMS ; read PARM02 : OK
(PID.TID 0000.0001) S/R INI_PARMS ; starts to read PARM03
(PID.TID 0000.0001) S/R INI_PARMS ; read PARM03 : OK
(PID.TID 0000.0001) S/R INI_PARMS ; starts to read PARM04
(PID.TID 0000.0001) S/R INI_PARMS ; read PARM04 : OK
(PID.TID 0000.0001) S/R INI_PARMS ; starts to read PARM05
(PID.TID 0000.0001) S/R INI_PARMS ; read PARM05 : OK
(PID.TID 0000.0001)  PACKAGES_BOOT: opening data.pkg
(PID.TID 0000.0001)  OPEN_COPY_DATA_FILE: opening file data.pkg
(PID.TID 0000.0001) // =======================================================
(PID.TID 0000.0001) // Parameter file "data.pkg"
(PID.TID 0000.0001) // =======================================================
(PID.TID 0000.0001) ># Packages
(PID.TID 0000.0001) > &PACKAGES
(PID.TID 0000.0001) >  useGMRedi=.FALSE.,
(PID.TID 0000.0001) >  useKPP=.TRUE.,
(PID.TID 0000.0001) >  useECCO=.FALSE.,
(PID.TID 0000.0001) >  usediagnostics=.TRUE.,
(PID.TID 0000.0001) > &
(PID.TID 0000.0001) 
(PID.TID 0000.0001)  PACKAGES_BOOT: finished reading data.pkg
(PID.TID 0000.0001)  KPP_INIT: opening data.kpp
(PID.TID 0000.0001)  OPEN_COPY_DATA_FILE: opening file data.kpp
(PID.TID 0000.0001) // =======================================================
(PID.TID 0000.0001) // Parameter file "data.kpp"
(PID.TID 0000.0001) // =======================================================
(PID.TID 0000.0001) ># KPP parameters
(PID.TID 0000.0001) > &KPP_PARM01
(PID.TID 0000.0001) > KPPmixingMaps   = .FALSE.,
(PID.TID 0000.0001) > KPPwriteState   = .TRUE.,
(PID.TID 0000.0001) > &
(PID.TID 0000.0001) 
(PID.TID 0000.0001)  KPP_INIT: finished reading data.kpp
(PID.TID 0000.0001)  DIAGNOSTICS_READPARMS: opening data.diagnostics
(PID.TID 0000.0001)  OPEN_COPY_DATA_FILE: opening file data.diagnostics
(PID.TID 0000.0001) // =======================================================
(PID.TID 0000.0001) // Parameter file "data.diagnostics"
(PID.TID 0000.0001) // =======================================================
(PID.TID 0000.0001) ># Diagnostic Package Choices
(PID.TID 0000.0001) >#-----------------
(PID.TID 0000.0001) ># for each output-stream:
(PID.TID 0000.0001) >#  filename(n) : prefix of the output file name (only 8.c long) for outp.stream n
(PID.TID 0000.0001) >#  frequency(n):< 0 : write snap-shot output every |frequency| seconds
(PID.TID 0000.0001) >#               > 0 : write time-average output every frequency seconds
(PID.TID 0000.0001) >#  timePhase(n)     : write at time = timePhase + multiple of |frequency|
(PID.TID 0000.0001) >#  levels(:,n) : list of levels to write to file (Notes: declared as REAL)
(PID.TID 0000.0001) >#                 when this entry is missing, select all common levels of this list
(PID.TID 0000.0001) >#  fields(:,n) : list of diagnostics fields (8.c) (see "available_diagnostics" file
(PID.TID 0000.0001) >#                 for the list of all available diag. in this particular config)
(PID.TID 0000.0001) >#-----------------
(PID.TID 0000.0001) ># This example dumps all KPP diagnostics as
(PID.TID 0000.0001) ># a snapshot every day, at mid day (t=12.h, baseTime=6.h, deltaT=1.h => iter=6)
(PID.TID 0000.0001) > &diagnostics_list
(PID.TID 0000.0001) >  frequency(1) = -86400.,
(PID.TID 0000.0001) >   fields(1,1) = 'KPPviscA',
(PID.TID 0000.0001) >   filename(1) = 'KPPviscA',
(PID.TID 0000.0001) >  frequency(2) = -86400.,
(PID.TID 0000.0001) >   fields(1,2) = 'KPPdiffS',
(PID.TID 0000.0001) >   filename(2) = 'KPPdiffS',
(PID.TID 0000.0001) >  frequency(3) = -86400.,
(PID.TID 0000.0001) >   fields(1,3) = 'KPPdiffT',
(PID.TID 0000.0001) >   filename(3) = 'KPPdiffT',
(PID.TID 0000.0001) >  frequency(4) = -86400.,
(PID.TID 0000.0001) >   fields(1,4) = 'KPPghat ',
(PID.TID 0000.0001) >   filename(4) = 'KPP_ghat',
(PID.TID 0000.0001) >  frequency(5) = -86400.,
(PID.TID 0000.0001) >   fields(1,5) = 'KPPhbl  ',
(PID.TID 0000.0001) >   filename(5) = 'KPP_hbl',
(PID.TID 0000.0001) >  frequency(6) = -86400.,
(PID.TID 0000.0001) >   fields(1,6) = 'KPPfrac ',
(PID.TID 0000.0001) >   filename(6) = 'KPPfrac',
(PID.TID 0000.0001) >  frequency(7) = -86400.,
(PID.TID 0000.0001) >   fields(1,7) = 'MXLDEPTH',
(PID.TID 0000.0001) >   filename(7) = 'MXLDEPTH',
(PID.TID 0000.0001) > &
(PID.TID 0000.0001) >
(PID.TID 0000.0001) ># Parameter for Diagnostics of per level statistics:
(PID.TID 0000.0001) >#-----------------
(PID.TID 0000.0001) ># for each output-stream:
(PID.TID 0000.0001) >#  stat_fname(n) : prefix of the output file name (only 8.c long) for outp.stream n
(PID.TID 0000.0001) >#  stat_freq(n):< 0 : write snap-shot output every |stat_freq| seconds
(PID.TID 0000.0001) >#               > 0 : write time-average output every stat_freq seconds
(PID.TID 0000.0001) >#  stat_phase(n)    : write at time = stat_phase + multiple of |stat_freq|
(PID.TID 0000.0001) >#  stat_region(:,n) : list of "regions" (default: 1 region only=global)
(PID.TID 0000.0001) >#  stat_fields(:,n) : list of diagnostics fields (8.c) (see "available_diagnostics.log"
(PID.TID 0000.0001) >#                 file for the list of all available diag. in this particular config)
(PID.TID 0000.0001) >#-----------------
(PID.TID 0000.0001) > &DIAG_STATIS_PARMS
(PID.TID 0000.0001) >#- an example just to check the agreement with MONITOR output:
(PID.TID 0000.0001) >#stat_fields(1,1)= 'ETAN    ','UVEL    ','VVEL    ','WVEL    ', 'THETA   ',
(PID.TID 0000.0001) >#   stat_fname(1)= 'dynStDiag',
(PID.TID 0000.0001) >#    stat_freq(1)= -864000.,
(PID.TID 0000.0001) >#   stat_phase(1)= 0.,
(PID.TID 0000.0001) > &
(PID.TID 0000.0001) >
(PID.TID 0000.0001) 
(PID.TID 0000.0001) S/R DIAGNOSTICS_READPARMS, read namelist "diagnostics_list": start
(PID.TID 0000.0001) S/R DIAGNOSTICS_READPARMS, read namelist "diagnostics_list": OK
(PID.TID 0000.0001) S/R DIAGNOSTICS_READPARMS, read namelist "DIAG_STATIS_PARMS": start
(PID.TID 0000.0001) S/R DIAGNOSTICS_READPARMS, read namelist "DIAG_STATIS_PARMS": OK
(PID.TID 0000.0001) -----------------------------------------------------
(PID.TID 0000.0001)  DIAGNOSTICS_READPARMS: active diagnostics summary:
(PID.TID 0000.0001) -----------------------------------------------------
(PID.TID 0000.0001) Creating Output Stream: KPPviscA
(PID.TID 0000.0001) Output Frequency:     -86400.000000 ; Phase:       43200.000000
(PID.TID 0000.0001)  Averaging Freq.:          0.000000 , Phase:           0.000000 , Cycle:   1
(PID.TID 0000.0001)  missing value:  1.234567000000E+05 ; for integers:   123456789
(PID.TID 0000.0001)  Levels:    will be set later
(PID.TID 0000.0001)  Fields:    KPPviscA
(PID.TID 0000.0001) Creating Output Stream: KPPdiffS
(PID.TID 0000.0001) Output Frequency:     -86400.000000 ; Phase:       43200.000000
(PID.TID 0000.0001)  Averaging Freq.:          0.000000 , Phase:           0.000000 , Cycle:   1
(PID.TID 0000.0001)  missing value:  1.234567000000E+05 ; for integers:   123456789
(PID.TID 0000.0001)  Levels:    will be set later
(PID.TID 0000.0001)  Fields:    KPPdiffS
(PID.TID 0000.0001) Creating Output Stream: KPPdiffT
(PID.TID 0000.0001) Output Frequency:     -86400.000000 ; Phase:       43200.000000
(PID.TID 0000.0001)  Averaging Freq.:          0.000000 , Phase:           0.000000 , Cycle:   1
(PID.TID 0000.0001)  missing value:  1.234567000000E+05 ; for integers:   123456789
(PID.TID 0000.0001)  Levels:    will be set later
(PID.TID 0000.0001)  Fields:    KPPdiffT
(PID.TID 0000.0001) Creating Output Stream: KPP_ghat
(PID.TID 0000.0001) Output Frequency:     -86400.000000 ; Phase:       43200.000000
(PID.TID 0000.0001)  Averaging Freq.:          0.000000 , Phase:           0.000000 , Cycle:   1
(PID.TID 0000.0001)  missing value:  1.234567000000E+05 ; for integers:   123456789
(PID.TID 0000.0001)  Levels:    will be set later
(PID.TID 0000.0001)  Fields:    KPPghat
(PID.TID 0000.0001) Creating Output Stream: KPP_hbl
(PID.TID 0000.0001) Output Frequency:     -86400.000000 ; Phase:       43200.000000
(PID.TID 0000.0001)  Averaging Freq.:          0.000000 , Phase:           0.000000 , Cycle:   1
(PID.TID 0000.0001)  missing value:  1.234567000000E+05 ; for integers:   123456789
(PID.TID 0000.0001)  Levels:    will be set later
(PID.TID 0000.0001)  Fields:    KPPhbl
(PID.TID 0000.0001) Creating Output Stream: KPPfrac
(PID.TID 0000.0001) Output Frequency:     -86400.000000 ; Phase:       43200.000000
(PID.TID 0000.0001)  Averaging Freq.:          0.000000 , Phase:           0.000000 , Cycle:   1
(PID.TID 0000.0001)  missing value:  1.234567000000E+05 ; for integers:   123456789
(PID.TID 0000.0001)  Levels:    will be set later
(PID.TID 0000.0001)  Fields:    KPPfrac
(PID.TID 0000.0001) Creating Output Stream: MXLDEPTH
(PID.TID 0000.0001) Output Frequency:     -86400.000000 ; Phase:       43200.000000
(PID.TID 0000.0001)  Averaging Freq.:          0.000000 , Phase:           0.000000 , Cycle:   1
(PID.TID 0000.0001)  missing value:  1.234567000000E+05 ; for integers:   123456789
(PID.TID 0000.0001)  Levels:    will be set later
(PID.TID 0000.0001)  Fields:    MXLDEPTH
(PID.TID 0000.0001) -----------------------------------------------------
(PID.TID 0000.0001)  DIAGNOSTICS_READPARMS: statistics diags. summary:
(PID.TID 0000.0001) -----------------------------------------------------
(PID.TID 0000.0001) 
(PID.TID 0000.0001) SET_PARMS: done
(PID.TID 0000.0001) Enter INI_VERTICAL_GRID: setInterFDr=    T ; setCenterDr=    F
(PID.TID 0000.0001) %MON XC_max                       =  -3.0000000000000E+00
(PID.TID 0000.0001) %MON XC_min                       =  -4.1000000000000E+01
(PID.TID 0000.0001) %MON XC_mean                      =  -2.2000000000000E+01
(PID.TID 0000.0001) %MON XC_sd                        =   1.1532562594671E+01
(PID.TID 0000.0001) %MON XG_max                       =  -4.0000000000000E+00
(PID.TID 0000.0001) %MON XG_min                       =  -4.2000000000000E+01
(PID.TID 0000.0001) %MON XG_mean                      =  -2.3000000000000E+01
(PID.TID 0000.0001) %MON XG_sd                        =   1.1532562594671E+01
(PID.TID 0000.0001) %MON DXC_max                      =   2.1826966005878E+05
(PID.TID 0000.0001) %MON DXC_min                      =   1.6781340848749E+05
(PID.TID 0000.0001) %MON DXC_mean                     =   1.9727395728441E+05
(PID.TID 0000.0001) %MON DXC_sd                       =   1.5731168072696E+04
(PID.TID 0000.0001) %MON DXF_max                      =   2.1826966005878E+05
(PID.TID 0000.0001) %MON DXF_min                      =   1.6781340848749E+05
(PID.TID 0000.0001) %MON DXF_mean                     =   1.9727395728441E+05
(PID.TID 0000.0001) %MON DXF_sd                       =   1.5731168072696E+04
(PID.TID 0000.0001) %MON DXG_max                      =   2.1897687543479E+05
(PID.TID 0000.0001) %MON DXG_min                      =   1.7033377132268E+05
(PID.TID 0000.0001) %MON DXG_mean                     =   1.9892312861058E+05
(PID.TID 0000.0001) %MON DXG_sd                       =   1.5180938630473E+04
(PID.TID 0000.0001) %MON DXV_max                      =   2.1897687543479E+05
(PID.TID 0000.0001) %MON DXV_min                      =   1.7033377132268E+05
(PID.TID 0000.0001) %MON DXV_mean                     =   1.9892312861058E+05
(PID.TID 0000.0001) %MON DXV_sd                       =   1.5180938630473E+04
(PID.TID 0000.0001) %MON YC_max                       =   4.1000000000000E+01
(PID.TID 0000.0001) %MON YC_min                       =   1.1000000000000E+01
(PID.TID 0000.0001) %MON YC_mean                      =   2.6000000000000E+01
(PID.TID 0000.0001) %MON YC_sd                        =   9.2195444572929E+00
(PID.TID 0000.0001) %MON YG_max                       =   4.0000000000000E+01
(PID.TID 0000.0001) %MON YG_min                       =   1.0000000000000E+01
(PID.TID 0000.0001) %MON YG_mean                      =   2.5000000000000E+01
(PID.TID 0000.0001) %MON YG_sd                        =   9.2195444572929E+00
(PID.TID 0000.0001) %MON DYC_max                      =   2.2235494670408E+05
(PID.TID 0000.0001) %MON DYC_min                      =   2.2235494670408E+05
(PID.TID 0000.0001) %MON DYC_mean                     =   2.2235494670408E+05
(PID.TID 0000.0001) %MON DYC_sd                       =   4.6566128730774E-10
(PID.TID 0000.0001) %MON DYF_max                      =   2.2235494670408E+05
(PID.TID 0000.0001) %MON DYF_min                      =   2.2235494670408E+05
(PID.TID 0000.0001) %MON DYF_mean                     =   2.2235494670408E+05
(PID.TID 0000.0001) %MON DYF_sd                       =   4.6566128730774E-10
(PID.TID 0000.0001) %MON DYG_max                      =   2.2235494670408E+05
(PID.TID 0000.0001) %MON DYG_min                      =   2.2235494670408E+05
(PID.TID 0000.0001) %MON DYG_mean                     =   2.2235494670408E+05
(PID.TID 0000.0001) %MON DYG_sd                       =   4.6566128730774E-10
(PID.TID 0000.0001) %MON DYU_max                      =   2.2235494670408E+05
(PID.TID 0000.0001) %MON DYU_min                      =   2.2235494670408E+05
(PID.TID 0000.0001) %MON DYU_mean                     =   2.2235494670408E+05
(PID.TID 0000.0001) %MON DYU_sd                       =   4.6566128730774E-10
(PID.TID 0000.0001) %MON RA_max                       =   4.8530874650285E+10
(PID.TID 0000.0001) %MON RA_min                       =   3.7312247106402E+10
(PID.TID 0000.0001) %MON RA_mean                      =   4.3862613292919E+10
(PID.TID 0000.0001) %MON RA_sd                        =   3.4977254540690E+09
(PID.TID 0000.0001) %MON RAW_max                      =   4.8530874650285E+10
(PID.TID 0000.0001) %MON RAW_min                      =   3.7312247106402E+10
(PID.TID 0000.0001) %MON RAW_mean                     =   4.3862613292919E+10
(PID.TID 0000.0001) %MON RAW_sd                       =   3.4977254540690E+09
(PID.TID 0000.0001) %MON RAS_max                      =   4.8688119503989E+10
(PID.TID 0000.0001) %MON RAS_min                      =   3.7872633798691E+10
(PID.TID 0000.0001) %MON RAS_mean                     =   4.4229296078267E+10
(PID.TID 0000.0001) %MON RAS_sd                       =   3.3753854271397E+09
(PID.TID 0000.0001) %MON RAZ_max                      =   4.8688119503989E+10
(PID.TID 0000.0001) %MON RAZ_min                      =   3.7872633798691E+10
(PID.TID 0000.0001) %MON RAZ_mean                     =   4.4229296078267E+10
(PID.TID 0000.0001) %MON RAZ_sd                       =   3.3753854271397E+09
(PID.TID 0000.0001) %MON AngleCS_max                  =   1.0000000000000E+00
(PID.TID 0000.0001) %MON AngleCS_min                  =   1.0000000000000E+00
(PID.TID 0000.0001) %MON AngleCS_mean                 =   1.0000000000000E+00
(PID.TID 0000.0001) %MON AngleCS_sd                   =   0.0000000000000E+00
(PID.TID 0000.0001) %MON AngleSN_max                  =   0.0000000000000E+00
(PID.TID 0000.0001) %MON AngleSN_min                  =   0.0000000000000E+00
(PID.TID 0000.0001) %MON AngleSN_mean                 =   0.0000000000000E+00
(PID.TID 0000.0001) %MON AngleSN_sd                   =   0.0000000000000E+00
(PID.TID 0000.0001)  MDS_READ_FIELD: opening global file: kf_topog
(PID.TID 0000.0001) // =======================================================
(PID.TID 0000.0001) // Field Model R_low (ini_masks_etc) at iteration          1
(PID.TID 0000.0001) // CMIN =         -5.200000000000000E+03
(PID.TID 0000.0001) // CMAX =         -3.600000000000000E+02
(PID.TID 0000.0001) // CINT =          1.792592592592593E+02
(PID.TID 0000.0001) // SYMBOLS (CMIN->CMAX): -abcdefghijklmnopqrstuvwxyz+
(PID.TID 0000.0001) //                  0.0: .
(PID.TID 0000.0001) // RANGE I (Lo:Hi:Step):(  -3:  24:   1)
(PID.TID 0000.0001) // RANGE J (Lo:Hi:Step):(  20:  -3:  -1)
(PID.TID 0000.0001) // RANGE K (Lo:Hi:Step):(   1:   1:   1)
(PID.TID 0000.0001) // =======================================================
(PID.TID 0000.0001) K =   1
(PID.TID 0000.0001) //                I=6       I=8       I=18
(PID.TID 0000.0001) // |--J--|321012345|789012347|901234567|901234
(PID.TID 0000.0001) //     20 .....cc-----cfkhkz--cfkhkz.......cc-
(PID.TID 0000.0001) //     19 .....c-------cccfy---cccfy.......c--
(PID.TID 0000.0001) //     18 .....hcc------ccfx----ccfx.......hcc
(PID.TID 0000.0001) //     17 ....................................
(PID.TID 0000.0001) //     16 ....................................
(PID.TID 0000.0001) //     15 hv+..fhknsqknnff-cqknnff-ckhhv+..fhk
(PID.TID 0000.0001) //     14 fhx..hknnnnkhcc-chnkhcc-chhhfhx..hkn
(PID.TID 0000.0001) //     13 fz...knnkhknf--chkknf--chkfffz...knn
(PID.TID 0000.0001) //     12 q....nkhfffhc--cfffhc--cffhnq....nkh
(PID.TID 0000.0001) //     11 +....khfccccc-ccfkccc-ccfkkv+....khf
(PID.TID 0000.0001) //     10 .....hcc---cc-cfhk-cc-cfhks......hcc
(PID.TID 0000.0001) //      9 .....fc-------cfkq----cfkq.......fc-
(PID.TID 0000.0001) //      8 .....c-------ccfkx---ccfkx.......c--
(PID.TID 0000.0001) //      7 .....c---cfcccfhk+fcccfhk+.......c--
(PID.TID 0000.0001) //      6 .....c---cccffhknvccffhknv.......c--
(PID.TID 0000.0001) //      5 .....c--ccccfkkkkqccfkkkkq.......c--
(PID.TID 0000.0001) //     12 q....nkhfffhc--cfffhc--cffhnq....nkh
(PID.TID 0000.0001) //     11 +....khfccccc-ccfkccc-ccfkkv+....khf
(PID.TID 0000.0001) //     10 .....hcc---cc-cfhk-cc-cfhks......hcc
(PID.TID 0000.0001) //      9 .....fc-------cfkq----cfkq.......fc-
(PID.TID 0000.0001) //      8 .....c-------ccfkx---ccfkx.......c--
(PID.TID 0000.0001) //      7 .....c---cfcccfhk+fcccfhk+.......c--
(PID.TID 0000.0001) //      6 .....c---cccffhknvccffhknv.......c--
(PID.TID 0000.0001) //      5 .....c--ccccfkkkkqccfkkkkq.......c--
(PID.TID 0000.0001) //      4 .....cc-----cfkhkz--cfkhkz.......cc-
(PID.TID 0000.0001) //      3 .....c-------cccfy---cccfy.......c--
(PID.TID 0000.0001) //      2 .....hcc------ccfx----ccfx.......hcc
(PID.TID 0000.0001) //      1 ....................................
(PID.TID 0000.0001) //      0 ....................................
(PID.TID 0000.0001) //     -1 hv+..fhknsqknnff-cqknnff-ckhhv+..fhk
(PID.TID 0000.0001) //     -2 fhx..hknnnnkhcc-chnkhcc-chhhfhx..hkn
(PID.TID 0000.0001) //     -3 fz...knnkhknf--chkknf--chkfffz...knn
(PID.TID 0000.0001) // =======================================================
(PID.TID 0000.0001) // END OF FIELD                                          =
(PID.TID 0000.0001) // =======================================================
(PID.TID 0000.0001) 
(PID.TID 0000.0001) // =======================================================
(PID.TID 0000.0001) // Field Model Ro_surf (ini_masks_etc) at iteration          1
(PID.TID 0000.0001) // CMIN =          1.000000000000000E+32
(PID.TID 0000.0001) // CMAX =         -1.000000000000000E+32
(PID.TID 0000.0001) // CINT =          0.000000000000000E+00
(PID.TID 0000.0001) // SYMBOLS (CMIN->CMAX): -abcdefghijklmnopqrstuvwxyz+
(PID.TID 0000.0001) //                  0.0: .
(PID.TID 0000.0001) // RANGE I (Lo:Hi:Step):(  -3:  24:   1)
(PID.TID 0000.0001) // RANGE J (Lo:Hi:Step):(  20:  -3:  -1)
(PID.TID 0000.0001) // RANGE K (Lo:Hi:Step):(   1:   1:   1)
(PID.TID 0000.0001) // =======================================================
(PID.TID 0000.0001) // =======================================================
(PID.TID 0000.0001) // END OF FIELD                                          =
(PID.TID 0000.0001) // =======================================================
(PID.TID 0000.0001) 
(PID.TID 0000.0001) // =======================================================
(PID.TID 0000.0001) // Field hFacC at iteration          1
(PID.TID 0000.0001) // CMIN =          1.000000000000000E+00
(PID.TID 0000.0001) // CMAX =          1.000000000000000E+00
(PID.TID 0000.0001) // CINT =          0.000000000000000E+00
(PID.TID 0000.0001) // SYMBOLS (CMIN->CMAX): -abcdefghijklmnopqrstuvwxyz+
(PID.TID 0000.0001) //                  0.0: .
(PID.TID 0000.0001) // RANGE I (Lo:Hi:Step):(  -3:  24:   1)
(PID.TID 0000.0001) // RANGE J (Lo:Hi:Step):(  20:  -3:  -1)
(PID.TID 0000.0001) // RANGE K (Lo:Hi:Step):(   1:   1:   1)
(PID.TID 0000.0001) // =======================================================
(PID.TID 0000.0001) // =======================================================
(PID.TID 0000.0001) // END OF FIELD                                          =
(PID.TID 0000.0001) // =======================================================
(PID.TID 0000.0001) 
(PID.TID 0000.0001) // =======================================================
(PID.TID 0000.0001) // Field hFacW at iteration          1
(PID.TID 0000.0001) // CMIN =          1.000000000000000E+00
(PID.TID 0000.0001) // CMAX =          1.000000000000000E+00
(PID.TID 0000.0001) // CINT =          0.000000000000000E+00
(PID.TID 0000.0001) // SYMBOLS (CMIN->CMAX): -abcdefghijklmnopqrstuvwxyz+
(PID.TID 0000.0001) //                  0.0: .
(PID.TID 0000.0001) // RANGE I (Lo:Hi:Step):(  -3:  24:   1)
(PID.TID 0000.0001) // RANGE J (Lo:Hi:Step):(  20:  -3:  -1)
(PID.TID 0000.0001) // RANGE K (Lo:Hi:Step):(   1:   1:   1)
(PID.TID 0000.0001) // =======================================================
(PID.TID 0000.0001) // =======================================================
(PID.TID 0000.0001) // END OF FIELD                                          =
(PID.TID 0000.0001) // =======================================================
(PID.TID 0000.0001) 
(PID.TID 0000.0001) // =======================================================
(PID.TID 0000.0001) // Field hFacS at iteration          1
(PID.TID 0000.0001) // CMIN =          1.000000000000000E+00
(PID.TID 0000.0001) // CMAX =          1.000000000000000E+00
(PID.TID 0000.0001) // CINT =          0.000000000000000E+00
(PID.TID 0000.0001) // SYMBOLS (CMIN->CMAX): -abcdefghijklmnopqrstuvwxyz+
(PID.TID 0000.0001) //                  0.0: .
(PID.TID 0000.0001) // RANGE I (Lo:Hi:Step):(  -3:  24:   1)
(PID.TID 0000.0001) // RANGE J (Lo:Hi:Step):(  20:  -3:  -1)
(PID.TID 0000.0001) // RANGE K (Lo:Hi:Step):(   1:   1:   1)
(PID.TID 0000.0001) // =======================================================
(PID.TID 0000.0001) // =======================================================
(PID.TID 0000.0001) // END OF FIELD                                          =
(PID.TID 0000.0001) // =======================================================
(PID.TID 0000.0001) 
(PID.TID 0000.0001) 
(PID.TID 0000.0001) // ===================================
(PID.TID 0000.0001) // GAD parameters :
(PID.TID 0000.0001) // ===================================
(PID.TID 0000.0001) tempAdvScheme =   /* Temp. Horiz.Advection scheme selector */
(PID.TID 0000.0001)                       2
(PID.TID 0000.0001)     ;
(PID.TID 0000.0001) tempVertAdvScheme =   /* Temp. Vert. Advection scheme selector */
(PID.TID 0000.0001)                       2
(PID.TID 0000.0001)     ;
(PID.TID 0000.0001) tempMultiDimAdvec =   /* use Muti-Dim Advec method for Temp */
(PID.TID 0000.0001)                   F
(PID.TID 0000.0001)     ;
(PID.TID 0000.0001) tempSOM_Advection = /* use 2nd Order Moment Advection for Temp */
(PID.TID 0000.0001)                   F
(PID.TID 0000.0001)     ;
(PID.TID 0000.0001) AdamsBashforthGt = /* apply Adams-Bashforth extrapolation on Gt */
(PID.TID 0000.0001)                   T
(PID.TID 0000.0001)     ;
(PID.TID 0000.0001) AdamsBashforth_T = /* apply Adams-Bashforth extrapolation on Temp */
(PID.TID 0000.0001)                   F
(PID.TID 0000.0001)     ;
(PID.TID 0000.0001) saltAdvScheme =   /* Salt. Horiz.advection scheme selector */
(PID.TID 0000.0001)                       2
(PID.TID 0000.0001)     ;
(PID.TID 0000.0001) saltVertAdvScheme =   /* Salt. Vert. Advection scheme selector */
(PID.TID 0000.0001)                       2
(PID.TID 0000.0001)     ;
(PID.TID 0000.0001) saltMultiDimAdvec =   /* use Muti-Dim Advec method for Salt */
(PID.TID 0000.0001)                   F
(PID.TID 0000.0001)     ;
(PID.TID 0000.0001) saltSOM_Advection = /* use 2nd Order Moment Advection for Salt */
(PID.TID 0000.0001)                   F
(PID.TID 0000.0001)     ;
(PID.TID 0000.0001) AdamsBashforthGs = /* apply Adams-Bashforth extrapolation on Gs */
(PID.TID 0000.0001)                   T
(PID.TID 0000.0001)     ;
(PID.TID 0000.0001) AdamsBashforth_S = /* apply Adams-Bashforth extrapolation on Salt */
(PID.TID 0000.0001)                   F
(PID.TID 0000.0001)     ;
(PID.TID 0000.0001) // ===================================
(PID.TID 0000.0001) ------------------------------------------------------------
(PID.TID 0000.0001) DIAGNOSTICS_SET_LEVELS: done
(PID.TID 0000.0001)  Total Nb of available Diagnostics: ndiagt=   182
(PID.TID 0000.0001)  write list of available Diagnostics to file: available_diagnostics.log
(PID.TID 0000.0001) SETDIAG: Allocate 23 x  1 Levels for Diagnostic #   171 KPPviscA
(PID.TID 0000.0001) SETDIAG: Allocate 23 x  1 Levels for Diagnostic #   172 KPPdiffS
(PID.TID 0000.0001) SETDIAG: Allocate 23 x  1 Levels for Diagnostic #   173 KPPdiffT
(PID.TID 0000.0001) SETDIAG: Allocate 23 x  1 Levels for Diagnostic #   174 KPPghat
(PID.TID 0000.0001) SETDIAG: Allocate  1 x  1 Levels for Diagnostic #   175 KPPhbl
(PID.TID 0000.0001) SETDIAG: Allocate  1 x  1 Levels for Diagnostic #   176 KPPfrac
(PID.TID 0000.0001) SETDIAG: Allocate  1 x  1 Levels for Diagnostic #    71 MXLDEPTH
(PID.TID 0000.0001)   space allocated for all diagnostics:      95 levels
(PID.TID 0000.0001) DIAGNOSTICS_SET_POINTERS: Set levels for Outp.Stream: KPPviscA
(PID.TID 0000.0001)  Levels:       1.   2.   3.   4.   5.   6.   7.   8.   9.  10.  11.  12.  13.  14.  15.  16.  17.  18.  19.  20.
(PID.TID 0000.0001)  Levels:      21.  22.  23.
(PID.TID 0000.0001) DIAGNOSTICS_SET_POINTERS: Set levels for Outp.Stream: KPPdiffS
(PID.TID 0000.0001)  Levels:       1.   2.   3.   4.   5.   6.   7.   8.   9.  10.  11.  12.  13.  14.  15.  16.  17.  18.  19.  20.
(PID.TID 0000.0001)  Levels:      21.  22.  23.
(PID.TID 0000.0001) DIAGNOSTICS_SET_POINTERS: Set levels for Outp.Stream: KPPdiffT
(PID.TID 0000.0001)  Levels:       1.   2.   3.   4.   5.   6.   7.   8.   9.  10.  11.  12.  13.  14.  15.  16.  17.  18.  19.  20.
(PID.TID 0000.0001)  Levels:      21.  22.  23.
(PID.TID 0000.0001) DIAGNOSTICS_SET_POINTERS: Set levels for Outp.Stream: KPP_ghat
(PID.TID 0000.0001)  Levels:       1.   2.   3.   4.   5.   6.   7.   8.   9.  10.  11.  12.  13.  14.  15.  16.  17.  18.  19.  20.
(PID.TID 0000.0001)  Levels:      21.  22.  23.
(PID.TID 0000.0001) DIAGNOSTICS_SET_POINTERS: Set levels for Outp.Stream: KPP_hbl
(PID.TID 0000.0001)  Levels:       1.
(PID.TID 0000.0001) DIAGNOSTICS_SET_POINTERS: Set levels for Outp.Stream: KPPfrac
(PID.TID 0000.0001)  Levels:       1.
(PID.TID 0000.0001) DIAGNOSTICS_SET_POINTERS: Set levels for Outp.Stream: MXLDEPTH
(PID.TID 0000.0001)  Levels:       1.
(PID.TID 0000.0001) DIAGNOSTICS_SET_POINTERS: done
(PID.TID 0000.0001) ------------------------------------------------------------
(PID.TID 0000.0001) DIAGSTATS_SET_REGIONS: define no region
(PID.TID 0000.0001) ------------------------------------------------------------
(PID.TID 0000.0001)   space allocated for all stats-diags:       0 levels
(PID.TID 0000.0001) DIAGSTATS_SET_POINTERS: done
(PID.TID 0000.0001) ------------------------------------------------------------
(PID.TID 0000.0001) %MON fCori_max                    =   9.5681269476711E-05
(PID.TID 0000.0001) %MON fCori_min                    =   2.7828055248772E-05
(PID.TID 0000.0001) %MON fCori_mean                   =   6.3108629295410E-05
(PID.TID 0000.0001) %MON fCori_sd                     =   2.0943015160624E-05
(PID.TID 0000.0001) %MON fCoriG_max                   =   9.3745732900505E-05
(PID.TID 0000.0001) %MON fCoriG_min                   =   2.5325279200951E-05
(PID.TID 0000.0001) %MON fCoriG_mean                  =   6.0840818126420E-05
(PID.TID 0000.0001) %MON fCoriG_sd                    =   2.1116986447899E-05
(PID.TID 0000.0001) %MON fCoriCos_max                 =   1.4316293338671E-04
(PID.TID 0000.0001) %MON fCoriCos_min                 =   1.1006870956881E-04
(PID.TID 0000.0001) %MON fCoriCos_mean                =   1.2939186508118E-04
(PID.TID 0000.0001) %MON fCoriCos_sd                  =   1.0318063290519E-05
(PID.TID 0000.0001) INI_CG2D: CG2D normalisation factor =  1.5752923928634454E-04
(PID.TID 0000.0001) 
(PID.TID 0000.0001) // =======================================================
(PID.TID 0000.0001) // Model configuration
(PID.TID 0000.0001) // =======================================================
(PID.TID 0000.0001) //
(PID.TID 0000.0001) // "Physical" paramters ( PARM01 in namelist )
(PID.TID 0000.0001) //
(PID.TID 0000.0001) buoyancyRelation = /* Type of relation to get Buoyancy */
(PID.TID 0000.0001)               'OCEANIC'
(PID.TID 0000.0001)     ;
(PID.TID 0000.0001) fluidIsAir  =  /* fluid major constituent is Air */
(PID.TID 0000.0001)                   F
(PID.TID 0000.0001)     ;
(PID.TID 0000.0001) fluidIsWater=  /* fluid major constituent is Water */
(PID.TID 0000.0001)                   T
(PID.TID 0000.0001)     ;
(PID.TID 0000.0001) usingPCoords =  /* use p (or p*) vertical coordinate */
(PID.TID 0000.0001)                   F
(PID.TID 0000.0001)     ;
(PID.TID 0000.0001) usingZCoords =  /* use z (or z*) vertical coordinate */
(PID.TID 0000.0001)                   T
(PID.TID 0000.0001)     ;
(PID.TID 0000.0001) tRef =   /* Reference temperature profile ( oC or K ) */
(PID.TID 0000.0001)    23 @  2.000000000000000E+01              /* K =  1: 23 */
(PID.TID 0000.0001)     ;
(PID.TID 0000.0001) sRef =   /* Reference salinity profile ( psu ) */
(PID.TID 0000.0001)    23 @  3.000000000000000E+01              /* K =  1: 23 */
(PID.TID 0000.0001)     ;
(PID.TID 0000.0001) viscAh =   /* Lateral eddy viscosity ( m^2/s ) */
(PID.TID 0000.0001)                 5.000000000000000E+04
(PID.TID 0000.0001)     ;
(PID.TID 0000.0001) viscAhMax =   /* Maximum lateral eddy viscosity ( m^2/s ) */
(PID.TID 0000.0001)                 1.000000000000000E+21
(PID.TID 0000.0001)     ;
(PID.TID 0000.0001) viscAhGrid =   /* Grid dependent lateral eddy viscosity ( non-dim. ) */
(PID.TID 0000.0001)                 0.000000000000000E+00
(PID.TID 0000.0001)     ;
(PID.TID 0000.0001) useFullLeith =   /* Use Full Form of Leith Viscosity on/off flag*/
(PID.TID 0000.0001)                   F
(PID.TID 0000.0001)     ;
(PID.TID 0000.0001) useStrainTensionVisc =   /* Use StrainTension Form of Viscous Operator on/off flag*/
(PID.TID 0000.0001)                   F
(PID.TID 0000.0001)     ;
(PID.TID 0000.0001) useAreaViscLength =   /* Use area for visc length instead of geom. mean*/
(PID.TID 0000.0001)                   F
(PID.TID 0000.0001)     ;
(PID.TID 0000.0001) viscC2leith = /* Leith harmonic visc. factor (on grad(vort),non-dim.) */
(PID.TID 0000.0001)                 0.000000000000000E+00
(PID.TID 0000.0001)     ;
(PID.TID 0000.0001) viscC2leithD = /* Leith harmonic viscosity factor (on grad(div),non-dim.) */
(PID.TID 0000.0001)                 0.000000000000000E+00
(PID.TID 0000.0001)     ;
(PID.TID 0000.0001) viscC2smag =   /* Smagorinsky harmonic viscosity factor (non-dim.) */
(PID.TID 0000.0001)                 0.000000000000000E+00
(PID.TID 0000.0001)     ;
(PID.TID 0000.0001) viscA4 =   /* Lateral biharmonic viscosity ( m^4/s ) */
(PID.TID 0000.0001)                 5.000000000000000E+12
(PID.TID 0000.0001)     ;
(PID.TID 0000.0001) viscA4Max =   /* Maximum biharmonic viscosity ( m^2/s ) */
(PID.TID 0000.0001)                 1.000000000000000E+21
(PID.TID 0000.0001)     ;
(PID.TID 0000.0001) viscA4Grid =   /* Grid dependent biharmonic viscosity ( non-dim. ) */
(PID.TID 0000.0001)                 0.000000000000000E+00
(PID.TID 0000.0001)     ;
(PID.TID 0000.0001) viscC4leith = /* Leith biharm viscosity factor (on grad(vort), non-dim.) */
(PID.TID 0000.0001)                 0.000000000000000E+00
(PID.TID 0000.0001)     ;
(PID.TID 0000.0001) viscC4leithD = /* Leith biharm viscosity factor (on grad(div), non-dim.) */
(PID.TID 0000.0001)                 0.000000000000000E+00
(PID.TID 0000.0001)     ;
(PID.TID 0000.0001) viscC4Smag = /* Smagorinsky biharm viscosity factor (non-dim) */
(PID.TID 0000.0001)                 0.000000000000000E+00
(PID.TID 0000.0001)     ;
(PID.TID 0000.0001) no_slip_sides =  /* Viscous BCs: No-slip sides */
(PID.TID 0000.0001)                   F
(PID.TID 0000.0001)     ;
(PID.TID 0000.0001) sideDragFactor = /* side-drag scaling factor (non-dim) */
(PID.TID 0000.0001)                 2.000000000000000E+00
(PID.TID 0000.0001)     ;
(PID.TID 0000.0001) viscAr =   /* Vertical eddy viscosity ( m^2/s ) */
(PID.TID 0000.0001)                 1.000000000000000E-03
(PID.TID 0000.0001)     ;
(PID.TID 0000.0001) no_slip_bottom =  /* Viscous BCs: No-slip bottom */
(PID.TID 0000.0001)                   T
(PID.TID 0000.0001)     ;
(PID.TID 0000.0001) bottomDragLinear = /* linear bottom-drag coefficient ( m/s ) */
(PID.TID 0000.0001)                 0.000000000000000E+00
(PID.TID 0000.0001)     ;
(PID.TID 0000.0001) bottomDragQuadratic = /* quadratic bottom-drag coefficient (-) */
(PID.TID 0000.0001)                 0.000000000000000E+00
(PID.TID 0000.0001)     ;
(PID.TID 0000.0001) diffKhT =   /* Laplacian diffusion of heat laterally ( m^2/s ) */
(PID.TID 0000.0001)                 1.000000000000000E+03
(PID.TID 0000.0001)     ;
(PID.TID 0000.0001) diffK4T =   /* Biharmonic diffusion of heat laterally ( m^4/s ) */
(PID.TID 0000.0001)                 0.000000000000000E+00
(PID.TID 0000.0001)     ;
(PID.TID 0000.0001) diffKhS =   /* Laplacian diffusion of salt laterally ( m^2/s ) */
(PID.TID 0000.0001)                 1.000000000000000E+03
(PID.TID 0000.0001)     ;
(PID.TID 0000.0001) diffK4S =   /* Biharmonic diffusion of salt laterally ( m^4/s ) */
(PID.TID 0000.0001)                 0.000000000000000E+00
(PID.TID 0000.0001)     ;
(PID.TID 0000.0001) diffKrNrT = /* vertical profile of vertical diffusion of Temp ( m^2/s )*/
(PID.TID 0000.0001)    23 @  1.000000000000000E-05              /* K =  1: 23 */
(PID.TID 0000.0001)     ;
(PID.TID 0000.0001) diffKrNrS = /* vertical profile of vertical diffusion of Salt ( m^2/s )*/
(PID.TID 0000.0001)    23 @  1.000000000000000E-05              /* K =  1: 23 */
(PID.TID 0000.0001)     ;
(PID.TID 0000.0001) diffKrBL79surf = /* Surface diffusion for Bryan and Lewis 79 ( m^2/s ) */
(PID.TID 0000.0001)                 0.000000000000000E+00
(PID.TID 0000.0001)     ;
(PID.TID 0000.0001) diffKrBL79deep = /* Deep diffusion for Bryan and Lewis 1979 ( m^2/s ) */
(PID.TID 0000.0001)                 0.000000000000000E+00
(PID.TID 0000.0001)     ;
(PID.TID 0000.0001) diffKrBL79scl = /* Depth scale for Bryan and Lewis 1979 ( m ) */
(PID.TID 0000.0001)                 2.000000000000000E+02
(PID.TID 0000.0001)     ;
(PID.TID 0000.0001) diffKrBL79Ho = /* Turning depth for Bryan and Lewis 1979 ( m ) */
(PID.TID 0000.0001)                -2.000000000000000E+03
(PID.TID 0000.0001)     ;
(PID.TID 0000.0001) ivdc_kappa = /* Implicit Vertical Diffusivity for Convection ( m^2/s ) */
(PID.TID 0000.0001)                 0.000000000000000E+00
(PID.TID 0000.0001)     ;
(PID.TID 0000.0001) hMixCriteria=  /* Criteria for mixed-layer diagnostic */
(PID.TID 0000.0001)                -8.000000000000000E-01
(PID.TID 0000.0001)     ;
(PID.TID 0000.0001) dRhoSmall=  /* Parameter for mixed-layer diagnostic */
(PID.TID 0000.0001)                 1.000000000000000E-06
(PID.TID 0000.0001)     ;
(PID.TID 0000.0001) hMixSmooth=  /* Smoothing parameter for mixed-layer diagnostic */
(PID.TID 0000.0001)                 0.000000000000000E+00
(PID.TID 0000.0001)     ;
(PID.TID 0000.0001) eosType =  /* Type of Equation of State */
(PID.TID 0000.0001)               'POLY3 '
(PID.TID 0000.0001)     ;
(PID.TID 0000.0001) tAlpha =   /* Linear EOS thermal expansion coefficient ( 1/oC ) */
(PID.TID 0000.0001)                 2.000000000000000E-04
(PID.TID 0000.0001)     ;
(PID.TID 0000.0001) sBeta =   /* Linear EOS haline contraction coefficient ( 1/psu ) */
(PID.TID 0000.0001)                 7.400000000000000E-04
(PID.TID 0000.0001)     ;
(PID.TID 0000.0001)   1  13.499  32.600  24.480  -0.201   0.771  -0.005  -0.002   0.000   0.000   0.000   0.000   0.000
(PID.TID 0000.0001)   2  13.498  32.600  24.525  -0.202   0.771  -0.005  -0.002   0.000   0.000   0.000   0.000   0.000
(PID.TID 0000.0001)   3  13.496  32.600  24.581  -0.202   0.771  -0.005  -0.002   0.000   0.000   0.000   0.000   0.000
(PID.TID 0000.0001)   4  13.494  32.600  24.660  -0.202   0.771  -0.005  -0.002   0.000   0.000   0.000   0.000   0.000
(PID.TID 0000.0001)   5  13.491  32.600  24.750  -0.203   0.771  -0.005  -0.002   0.000   0.000   0.000   0.000   0.000
(PID.TID 0000.0001)   6  13.488  32.600  24.851  -0.203   0.770  -0.005  -0.002   0.000   0.000   0.000   0.000   0.000
(PID.TID 0000.0001)   7  13.484  32.600  24.985  -0.204   0.770  -0.005  -0.002   0.000   0.000   0.000   0.000   0.000
(PID.TID 0000.0001)   8  13.478  32.600  25.176  -0.204   0.770  -0.005  -0.002   0.000   0.000   0.000   0.000   0.000
(PID.TID 0000.0001)   9  13.469  32.600  25.456  -0.205   0.769  -0.005  -0.002   0.000   0.000   0.000   0.000   0.000
(PID.TID 0000.0001)  10   8.467  35.150  28.748  -0.163   0.781  -0.005  -0.002   0.001   0.000   0.000   0.000   0.000
(PID.TID 0000.0001)  11   8.454  35.150  29.315  -0.166   0.780  -0.005  -0.002   0.001   0.000   0.000   0.000   0.000
(PID.TID 0000.0001)  12   5.946  34.900  30.300  -0.143   0.785  -0.006  -0.002   0.001   0.000   0.000   0.000   0.000
(PID.TID 0000.0001)  13   4.433  34.900  31.591  -0.132   0.786  -0.006  -0.003   0.000   0.000   0.000   0.000   0.000
(PID.TID 0000.0001)  14   3.909  34.750  32.966  -0.134   0.785  -0.006  -0.003   0.000   0.000   0.000   0.000   0.000
(PID.TID 0000.0001)  15   1.899  34.800  35.002  -0.121   0.787  -0.006  -0.003   0.000   0.000   0.000   0.000   0.000
(PID.TID 0000.0001)  16   1.372  34.750  36.991  -0.127   0.785  -0.006  -0.003  -0.001   0.000   0.000   0.000   0.000
(PID.TID 0000.0001)  17   1.332  34.800  39.171  -0.140   0.782  -0.006  -0.003  -0.001   0.000   0.000   0.000   0.000
(PID.TID 0000.0001)  18   0.797  34.800  41.472  -0.147   0.779  -0.006  -0.003  -0.001   0.000   0.000   0.000   0.000
(PID.TID 0000.0001)  19   0.749  34.800  43.682  -0.160   0.775  -0.005  -0.002  -0.002   0.000   0.000   0.000   0.000
(PID.TID 0000.0001)  20   0.214  34.750  45.912  -0.168   0.772  -0.005  -0.002  -0.002   0.000   0.000   0.000   0.000
(PID.TID 0000.0001)  21   0.160  34.750  48.080  -0.181   0.768  -0.005  -0.002  -0.003   0.000   0.000   0.000   0.000
(PID.TID 0000.0001)  22   0.584  34.750  50.131  -0.197   0.763  -0.005  -0.002  -0.001   0.000   0.000   0.000   0.000
(PID.TID 0000.0001)  23   0.522  34.750  52.248  -0.209   0.760  -0.005  -0.002  -0.002   0.000   0.000   0.000   0.000
(PID.TID 0000.0001) rhonil =   /* Reference density ( kg/m^3 ) */
(PID.TID 0000.0001)                 9.998000000000000E+02
(PID.TID 0000.0001)     ;
(PID.TID 0000.0001) rhoConst =   /* Reference density ( kg/m^3 ) */
(PID.TID 0000.0001)                 9.998000000000000E+02
(PID.TID 0000.0001)     ;
(PID.TID 0000.0001) rhoFacC = /* normalized Reference density @ cell-Center (-) */
(PID.TID 0000.0001)    23 @  1.000000000000000E+00              /* K =  1: 23 */
(PID.TID 0000.0001)     ;
(PID.TID 0000.0001) rhoFacF = /* normalized Reference density @ W-Interface (-) */
(PID.TID 0000.0001)    24 @  1.000000000000000E+00              /* K =  1: 24 */
(PID.TID 0000.0001)     ;
(PID.TID 0000.0001) rhoConstFresh =   /* Reference density ( kg/m^3 ) */
(PID.TID 0000.0001)                 9.998000000000000E+02
(PID.TID 0000.0001)     ;
(PID.TID 0000.0001) gravity =   /* Gravitational acceleration ( m/s^2 ) */
(PID.TID 0000.0001)                 9.810000000000000E+00
(PID.TID 0000.0001)     ;
(PID.TID 0000.0001) gBaro =   /* Barotropic gravity ( m/s^2 ) */
(PID.TID 0000.0001)                 9.810000000000000E+00
(PID.TID 0000.0001)     ;
(PID.TID 0000.0001) rotationPeriod =   /* Rotation Period ( s ) */
(PID.TID 0000.0001)                 8.616400000000000E+04
(PID.TID 0000.0001)     ;
(PID.TID 0000.0001) omega =   /* Angular velocity ( rad/s ) */
(PID.TID 0000.0001)                 7.292123516990375E-05
(PID.TID 0000.0001)     ;
(PID.TID 0000.0001) f0 =   /* Reference coriolis parameter ( 1/s ) */
(PID.TID 0000.0001)                 1.000000000000000E-04
(PID.TID 0000.0001)     ;
(PID.TID 0000.0001) beta =   /* Beta ( 1/(m.s) ) */
(PID.TID 0000.0001)                 9.999999999999999E-12
(PID.TID 0000.0001)     ;
(PID.TID 0000.0001) freeSurfFac =   /* Implicit free surface factor */
(PID.TID 0000.0001)                 1.000000000000000E+00
(PID.TID 0000.0001)     ;
(PID.TID 0000.0001) implicitFreeSurface =   /* Implicit free surface on/off flag */
(PID.TID 0000.0001)                   T
(PID.TID 0000.0001)     ;
(PID.TID 0000.0001) rigidLid =   /* Rigid lid on/off flag */
(PID.TID 0000.0001)                   F
(PID.TID 0000.0001)     ;
(PID.TID 0000.0001) implicSurfPress =   /* Surface Pressure implicit factor (0-1)*/
(PID.TID 0000.0001)                 1.000000000000000E+00
(PID.TID 0000.0001)     ;
(PID.TID 0000.0001) implicDiv2Dflow =   /* Barot. Flow Div. implicit factor (0-1)*/
(PID.TID 0000.0001)                 1.000000000000000E+00
(PID.TID 0000.0001)     ;
(PID.TID 0000.0001) exactConserv =   /* Exact Volume Conservation on/off flag*/
(PID.TID 0000.0001)                   F
(PID.TID 0000.0001)     ;
(PID.TID 0000.0001) linFSConserveTr =   /* Tracer correction for Lin Free Surface on/off flag*/
(PID.TID 0000.0001)                   F
(PID.TID 0000.0001)     ;
(PID.TID 0000.0001) uniformLin_PhiSurf =   /* use uniform Bo_surf on/off flag*/
(PID.TID 0000.0001)                   T
(PID.TID 0000.0001)     ;
(PID.TID 0000.0001) nonlinFreeSurf =   /* Non-linear Free Surf. options (-1,0,1,2,3)*/
(PID.TID 0000.0001)                       0
(PID.TID 0000.0001)     ;
(PID.TID 0000.0001)      -1,0= Off ; 1,2,3= On, 2=+rescale gU,gV, 3=+update cg2d solv.
(PID.TID 0000.0001) hFacInf =   /* lower threshold for hFac (nonlinFreeSurf only)*/
(PID.TID 0000.0001)                 2.000000000000000E-01
(PID.TID 0000.0001)     ;
(PID.TID 0000.0001) hFacSup =   /* upper threshold for hFac (nonlinFreeSurf only)*/
(PID.TID 0000.0001)                 2.000000000000000E+00
(PID.TID 0000.0001)     ;
(PID.TID 0000.0001) select_rStar = /* r* Vertical coord. options (=0 r coord.; > 0 uses r*) */
(PID.TID 0000.0001)                       0
(PID.TID 0000.0001)     ;
(PID.TID 0000.0001) selectAddFluid = /* option for mass source/sink of fluid (=0: off) */
(PID.TID 0000.0001)                       0
(PID.TID 0000.0001)     ;
(PID.TID 0000.0001) useRealFreshWaterFlux = /* Real Fresh Water Flux on/off flag*/
(PID.TID 0000.0001)                   F
(PID.TID 0000.0001)     ;
(PID.TID 0000.0001) temp_EvPrRn = /* Temp. of Evap/Prec/R (UNSET=use local T)(oC)*/
(PID.TID 0000.0001)                 1.234567000000000E+05
(PID.TID 0000.0001)     ;
(PID.TID 0000.0001) salt_EvPrRn = /* Salin. of Evap/Prec/R (UNSET=use local S)(ppt)*/
(PID.TID 0000.0001)                 0.000000000000000E+00
(PID.TID 0000.0001)     ;
(PID.TID 0000.0001) convertFW2Salt = /* convert F.W. Flux to Salt Flux (-1=use local S)(ppt)*/
(PID.TID 0000.0001)                 3.500000000000000E+01
(PID.TID 0000.0001)     ;
(PID.TID 0000.0001) use3Dsolver = /* use 3-D pressure solver on/off flag */
(PID.TID 0000.0001)                   F
(PID.TID 0000.0001)     ;
(PID.TID 0000.0001) nonHydrostatic =  /* Non-Hydrostatic on/off flag */
(PID.TID 0000.0001)                   F
(PID.TID 0000.0001)     ;
(PID.TID 0000.0001) nh_Am2 = /* Non-Hydrostatic terms scaling factor */
(PID.TID 0000.0001)                 1.000000000000000E+00
(PID.TID 0000.0001)     ;
(PID.TID 0000.0001) quasiHydrostatic = /* Quasi-Hydrostatic on/off flag */
(PID.TID 0000.0001)                   F
(PID.TID 0000.0001)     ;
(PID.TID 0000.0001) momStepping =  /* Momentum equation on/off flag */
(PID.TID 0000.0001)                   T
(PID.TID 0000.0001)     ;
(PID.TID 0000.0001) vectorInvariantMomentum= /* Vector-Invariant Momentum on/off */
(PID.TID 0000.0001)                   F
(PID.TID 0000.0001)     ;
(PID.TID 0000.0001) momAdvection =  /* Momentum advection on/off flag */
(PID.TID 0000.0001)                   T
(PID.TID 0000.0001)     ;
(PID.TID 0000.0001) momViscosity =  /* Momentum viscosity on/off flag */
(PID.TID 0000.0001)                   T
(PID.TID 0000.0001)     ;
(PID.TID 0000.0001) momImplVertAdv =/* Momentum implicit vert. advection on/off*/
(PID.TID 0000.0001)                   F
(PID.TID 0000.0001)     ;
(PID.TID 0000.0001) implicitViscosity = /* Implicit viscosity on/off flag */
(PID.TID 0000.0001)                   T
(PID.TID 0000.0001)     ;
(PID.TID 0000.0001) metricTerms =  /* metric-Terms on/off flag */
(PID.TID 0000.0001)                   T
(PID.TID 0000.0001)     ;
(PID.TID 0000.0001) useNHMTerms = /* Non-Hydrostatic Metric-Terms on/off */
(PID.TID 0000.0001)                   T
(PID.TID 0000.0001)     ;
(PID.TID 0000.0001) useConstantF =  /* use Constant f0 Coriolis flag */
(PID.TID 0000.0001)                   F
(PID.TID 0000.0001)     ;
(PID.TID 0000.0001) useBetaPlaneF = /* use Beta-Plane Coriolis flag */
(PID.TID 0000.0001)                   F
(PID.TID 0000.0001)     ;
(PID.TID 0000.0001) useSphereF  =   /* use Spherical Coriolis flag */
(PID.TID 0000.0001)                   T
(PID.TID 0000.0001)     ;
(PID.TID 0000.0001) use3dCoriolis = /* 3-D Coriolis on/off flag */
(PID.TID 0000.0001)                   F
(PID.TID 0000.0001)     ;
(PID.TID 0000.0001) useCoriolis =  /* Coriolis on/off flag */
(PID.TID 0000.0001)                   T
(PID.TID 0000.0001)     ;
(PID.TID 0000.0001) useCDscheme =  /* CD scheme on/off flag */
(PID.TID 0000.0001)                   T
(PID.TID 0000.0001)     ;
(PID.TID 0000.0001) useJamartWetPoints= /* Coriolis WetPoints method flag */
(PID.TID 0000.0001)                   F
(PID.TID 0000.0001)     ;
(PID.TID 0000.0001) useJamartMomAdv= /* V.I. Non-linear terms Jamart flag */
(PID.TID 0000.0001)                   F
(PID.TID 0000.0001)     ;
(PID.TID 0000.0001) useAbsVorticity= /* Work with f+zeta in Coriolis */
(PID.TID 0000.0001)                   F
(PID.TID 0000.0001)     ;
(PID.TID 0000.0001) selectVortScheme= /* Scheme selector for Vorticity-Term */
(PID.TID 0000.0001)               123456789
(PID.TID 0000.0001)    = 0 : enstrophy (Shallow-Water Eq.) conserving scheme by Sadourny, JAS 75
(PID.TID 0000.0001)    = 1 : same as 0 with modified hFac
(PID.TID 0000.0001)    = 2 : energy conserving scheme (used by Sadourny in JAS 75 paper)
(PID.TID 0000.0001)    = 3 : energy (general) and enstrophy (2D, nonDiv.) conserving scheme
(PID.TID 0000.0001)          from Sadourny (Burridge & Haseler, ECMWF Rep.4, 1977)
(PID.TID 0000.0001)     ;
(PID.TID 0000.0001) upwindVorticity= /* Upwind bias vorticity flag */
(PID.TID 0000.0001)                   F
(PID.TID 0000.0001)     ;
(PID.TID 0000.0001) highOrderVorticity= /* High order interp. of vort. flag */
(PID.TID 0000.0001)                   F
(PID.TID 0000.0001)     ;
(PID.TID 0000.0001) upwindShear= /* Upwind vertical Shear advection flag */
(PID.TID 0000.0001)                   F
(PID.TID 0000.0001)     ;
(PID.TID 0000.0001) selectKEscheme= /* Kinetic Energy scheme selector */
(PID.TID 0000.0001)                       0
(PID.TID 0000.0001)     ;
(PID.TID 0000.0001) momForcing =  /* Momentum forcing on/off flag */
(PID.TID 0000.0001)                   T
(PID.TID 0000.0001)     ;
(PID.TID 0000.0001) momPressureForcing =  /* Momentum pressure term on/off flag */
(PID.TID 0000.0001)                   T
(PID.TID 0000.0001)     ;
(PID.TID 0000.0001) implicitIntGravWave= /* Implicit Internal Gravity Wave flag */
(PID.TID 0000.0001)                   F
(PID.TID 0000.0001)     ;
(PID.TID 0000.0001) staggerTimeStep =   /* Stagger time stepping on/off flag */
(PID.TID 0000.0001)                   F
(PID.TID 0000.0001)     ;
(PID.TID 0000.0001) multiDimAdvection =   /* enable/disable Multi-Dim Advection */
(PID.TID 0000.0001)                   T
(PID.TID 0000.0001)     ;
(PID.TID 0000.0001) useMultiDimAdvec =   /* Multi-Dim Advection is/is-not used */
(PID.TID 0000.0001)                   F
(PID.TID 0000.0001)     ;
(PID.TID 0000.0001) implicitDiffusion =/* Implicit Diffusion on/off flag */
(PID.TID 0000.0001)                   T
(PID.TID 0000.0001)     ;
(PID.TID 0000.0001) tempStepping =  /* Temperature equation on/off flag */
(PID.TID 0000.0001)                   T
(PID.TID 0000.0001)     ;
(PID.TID 0000.0001) tempAdvection=  /* Temperature advection on/off flag */
(PID.TID 0000.0001)                   T
(PID.TID 0000.0001)     ;
(PID.TID 0000.0001) tempImplVertAdv =/* Temp. implicit vert. advection on/off */
(PID.TID 0000.0001)                   F
(PID.TID 0000.0001)     ;
(PID.TID 0000.0001) tempForcing  =  /* Temperature forcing on/off flag */
(PID.TID 0000.0001)                   T
(PID.TID 0000.0001)     ;
(PID.TID 0000.0001) tempIsActiveTr = /* Temp. is a dynamically Active Tracer */
(PID.TID 0000.0001)                   T
(PID.TID 0000.0001)     ;
(PID.TID 0000.0001) saltStepping =  /* Salinity equation on/off flag */
(PID.TID 0000.0001)                   T
(PID.TID 0000.0001)     ;
(PID.TID 0000.0001) saltAdvection=  /* Salinity advection on/off flag */
(PID.TID 0000.0001)                   T
(PID.TID 0000.0001)     ;
(PID.TID 0000.0001) saltImplVertAdv =/* Sali. implicit vert. advection on/off */
(PID.TID 0000.0001)                   F
(PID.TID 0000.0001)     ;
(PID.TID 0000.0001) saltForcing  =  /* Salinity forcing on/off flag */
(PID.TID 0000.0001)                   T
(PID.TID 0000.0001)     ;
(PID.TID 0000.0001) saltIsActiveTr = /* Salt  is a dynamically Active Tracer */
(PID.TID 0000.0001)                   T
(PID.TID 0000.0001)     ;
(PID.TID 0000.0001)  readBinaryPrec = /* Precision used for reading binary files */
(PID.TID 0000.0001)                      32
(PID.TID 0000.0001)     ;
(PID.TID 0000.0001) writeBinaryPrec = /* Precision used for writing binary files */
(PID.TID 0000.0001)                      32
(PID.TID 0000.0001)     ;
(PID.TID 0000.0001)  globalFiles = /* write "global" (=not per tile) files */
(PID.TID 0000.0001)                   F
(PID.TID 0000.0001)     ;
(PID.TID 0000.0001)  useSingleCpuIO = /* only master MPI process does I/O */
(PID.TID 0000.0001)                   F
(PID.TID 0000.0001)     ;
(PID.TID 0000.0001)  debugMode  =  /* Debug Mode on/off flag */
(PID.TID 0000.0001)                   F
(PID.TID 0000.0001)     ;
(PID.TID 0000.0001)    debLevA  =  /* 1rst level of debugging */
(PID.TID 0000.0001)                       1
(PID.TID 0000.0001)     ;
(PID.TID 0000.0001)    debLevB  =  /* 2nd  level of debugging */
(PID.TID 0000.0001)                       2
(PID.TID 0000.0001)     ;
(PID.TID 0000.0001)  debugLevel =  /* select debugging level */
(PID.TID 0000.0001)                       1
(PID.TID 0000.0001)     ;
(PID.TID 0000.0001) //
(PID.TID 0000.0001) // Elliptic solver(s) paramters ( PARM02 in namelist )
(PID.TID 0000.0001) //
(PID.TID 0000.0001) cg2dMaxIters =   /* Upper limit on 2d con. grad iterations  */
(PID.TID 0000.0001)                    1000
(PID.TID 0000.0001)     ;
(PID.TID 0000.0001) cg2dChkResFreq =   /* 2d con. grad convergence test frequency */
(PID.TID 0000.0001)                       1
(PID.TID 0000.0001)     ;
(PID.TID 0000.0001) cg2dTargetResidual =   /* 2d con. grad target residual  */
(PID.TID 0000.0001)                 1.000000000000000E-13
(PID.TID 0000.0001)     ;
(PID.TID 0000.0001) cg2dTargetResWunit =   /* CG2d target residual [W units] */
(PID.TID 0000.0001)                -1.000000000000000E+00
(PID.TID 0000.0001)     ;
(PID.TID 0000.0001) cg2dPreCondFreq =   /* Freq. for updating cg2d preconditioner */
(PID.TID 0000.0001)                       1
(PID.TID 0000.0001)     ;
(PID.TID 0000.0001) //
(PID.TID 0000.0001) // Time stepping paramters ( PARM03 in namelist )
(PID.TID 0000.0001) //
(PID.TID 0000.0001) deltaTmom =   /* Momentum equation timestep ( s ) */
(PID.TID 0000.0001)                 3.600000000000000E+03
(PID.TID 0000.0001)     ;
(PID.TID 0000.0001) deltaTfreesurf = /* FreeSurface equation timestep ( s ) */
(PID.TID 0000.0001)                 3.600000000000000E+03
(PID.TID 0000.0001)     ;
(PID.TID 0000.0001) dTtracerLev =  /* Tracer equation timestep ( s ) */
(PID.TID 0000.0001)    23 @  3.600000000000000E+03              /* K =  1: 23 */
(PID.TID 0000.0001)     ;
(PID.TID 0000.0001) deltaTClock  =   /* Model clock timestep ( s ) */
(PID.TID 0000.0001)                 3.600000000000000E+03
(PID.TID 0000.0001)     ;
(PID.TID 0000.0001) cAdjFreq =   /* Convective adjustment interval ( s ) */
(PID.TID 0000.0001)                 0.000000000000000E+00
(PID.TID 0000.0001)     ;
(PID.TID 0000.0001) momForcingOutAB = /* =1: take Momentum Forcing out of Adams-Bash. stepping */
(PID.TID 0000.0001)                       0
(PID.TID 0000.0001)     ;
(PID.TID 0000.0001) tracForcingOutAB = /* =1: take T,S,pTr Forcing out of Adams-Bash. stepping */
(PID.TID 0000.0001)                       0
(PID.TID 0000.0001)     ;
(PID.TID 0000.0001) momDissip_In_AB = /* put Dissipation Tendency in Adams-Bash. stepping */
(PID.TID 0000.0001)                   T
(PID.TID 0000.0001)     ;
(PID.TID 0000.0001) doAB_onGtGs = /* apply AB on Tendencies (rather than on T,S)*/
(PID.TID 0000.0001)                   T
(PID.TID 0000.0001)     ;
(PID.TID 0000.0001) abEps =   /* Adams-Bashforth-2 stabilizing weight */
(PID.TID 0000.0001)                 1.000000000000000E-01
(PID.TID 0000.0001)     ;
(PID.TID 0000.0001) tauCD =   /* CD coupling time-scale ( s ) */
(PID.TID 0000.0001)                 1.728000000000000E+05
(PID.TID 0000.0001)     ;
(PID.TID 0000.0001) rCD =   /* Normalised CD coupling parameter */
(PID.TID 0000.0001)                 9.791666666666666E-01
(PID.TID 0000.0001)     ;
(PID.TID 0000.0001) pickupStrictlyMatch= /* stop if pickup do not strictly match */
(PID.TID 0000.0001)                   T
(PID.TID 0000.0001)     ;
(PID.TID 0000.0001) nIter0 =   /* Run starting timestep number  */
(PID.TID 0000.0001)                       0
(PID.TID 0000.0001)     ;
(PID.TID 0000.0001) nTimeSteps =   /* Number of timesteps */
(PID.TID 0000.0001)                      20
(PID.TID 0000.0001)     ;
(PID.TID 0000.0001) baseTime =   /* Model base time ( s ). */
(PID.TID 0000.0001)                 2.160000000000000E+04
(PID.TID 0000.0001)     ;
(PID.TID 0000.0001) startTime =   /* Run start time ( s ). */
(PID.TID 0000.0001)                 2.160000000000000E+04
(PID.TID 0000.0001)     ;
(PID.TID 0000.0001) endTime =   /* Integration ending time ( s ). */
(PID.TID 0000.0001)                 9.360000000000000E+04
(PID.TID 0000.0001)     ;
(PID.TID 0000.0001) pChkPtFreq =   /* Permanent restart/checkpoint file interval ( s ). */
(PID.TID 0000.0001)                 0.000000000000000E+00
(PID.TID 0000.0001)     ;
(PID.TID 0000.0001) chkPtFreq =   /* Rolling restart/checkpoint file interval ( s ). */
(PID.TID 0000.0001)                 0.000000000000000E+00
(PID.TID 0000.0001)     ;
(PID.TID 0000.0001) pickup_write_mdsio =   /* Model IO flag. */
(PID.TID 0000.0001)                   T
(PID.TID 0000.0001)     ;
(PID.TID 0000.0001) pickup_read_mdsio =   /* Model IO flag. */
(PID.TID 0000.0001)                   T
(PID.TID 0000.0001)     ;
(PID.TID 0000.0001) pickup_write_immed =   /* Model IO flag. */
(PID.TID 0000.0001)                   F
(PID.TID 0000.0001)     ;
(PID.TID 0000.0001) writePickupAtEnd =   /* Model IO flag. */
(PID.TID 0000.0001)                   T
(PID.TID 0000.0001)     ;
(PID.TID 0000.0001) dumpFreq =   /* Model state write out interval ( s ). */
(PID.TID 0000.0001)                 8.640000000000000E+04
(PID.TID 0000.0001)     ;
(PID.TID 0000.0001) dumpInitAndLast= /* write out Initial & Last iter. model state */
(PID.TID 0000.0001)                   T
(PID.TID 0000.0001)     ;
(PID.TID 0000.0001) snapshot_mdsio =   /* Model IO flag. */
(PID.TID 0000.0001)                   T
(PID.TID 0000.0001)     ;
(PID.TID 0000.0001) monitorFreq =   /* Monitor output interval ( s ). */
(PID.TID 0000.0001)                 1.000000000000000E+00
(PID.TID 0000.0001)     ;
(PID.TID 0000.0001) monitorSelect = /* select group of variables to monitor */
(PID.TID 0000.0001)                       3
(PID.TID 0000.0001)     ;
(PID.TID 0000.0001) monitor_stdio =   /* Model IO flag. */
(PID.TID 0000.0001)                   T
(PID.TID 0000.0001)     ;
(PID.TID 0000.0001) externForcingPeriod =   /* forcing period (s) */
(PID.TID 0000.0001)                 4.320000000000000E+04
(PID.TID 0000.0001)     ;
(PID.TID 0000.0001) externForcingCycle =   /* period of the cyle (s). */
(PID.TID 0000.0001)                 2.764800000000000E+06
(PID.TID 0000.0001)     ;
(PID.TID 0000.0001) tauThetaClimRelax =   /* relaxation time scale (s) */
(PID.TID 0000.0001)                 2.592000000000000E+06
(PID.TID 0000.0001)     ;
(PID.TID 0000.0001) tauSaltClimRelax =   /* relaxation time scale (s) */
(PID.TID 0000.0001)                 2.592000000000000E+06
(PID.TID 0000.0001)     ;
(PID.TID 0000.0001) latBandClimRelax =   /* max. Lat. where relaxation */
(PID.TID 0000.0001)                 1.800000000000000E+02
(PID.TID 0000.0001)     ;
(PID.TID 0000.0001) //
(PID.TID 0000.0001) // Gridding paramters ( PARM04 in namelist )
(PID.TID 0000.0001) //
(PID.TID 0000.0001) usingCartesianGrid = /* Cartesian coordinates flag ( True/False ) */
(PID.TID 0000.0001)                   F
(PID.TID 0000.0001)     ;
(PID.TID 0000.0001) usingCylindricalGrid = /* Cylindrical coordinates flag ( True/False ) */
(PID.TID 0000.0001)                   F
(PID.TID 0000.0001)     ;
(PID.TID 0000.0001) usingSphericalPolarGrid = /* Spherical coordinates flag ( True/False ) */
(PID.TID 0000.0001)                   T
(PID.TID 0000.0001)     ;
(PID.TID 0000.0001) usingCurvilinearGrid = /* Curvilinear coordinates flag ( True/False ) */
(PID.TID 0000.0001)                   F
(PID.TID 0000.0001)     ;
(PID.TID 0000.0001) Ro_SeaLevel = /* r(1) ( units of r ==  m ) */
(PID.TID 0000.0001)                 0.000000000000000E+00
(PID.TID 0000.0001)     ;
(PID.TID 0000.0001) rkSign =   /* index orientation relative to vertical coordinate */
(PID.TID 0000.0001)                -1.000000000000000E+00
(PID.TID 0000.0001)     ;
(PID.TID 0000.0001) gravitySign = /* gravity orientation relative to vertical coordinate */
(PID.TID 0000.0001)                -1.000000000000000E+00
(PID.TID 0000.0001)     ;
(PID.TID 0000.0001) mass2rUnit = /* convert mass per unit area [kg/m2] to r-units [m] */
(PID.TID 0000.0001)                 1.000200040008002E-03
(PID.TID 0000.0001)     ;
(PID.TID 0000.0001) rUnit2mass = /* convert r-units [m] to mass per unit area [kg/m2] */
(PID.TID 0000.0001)                 9.998000000000000E+02
(PID.TID 0000.0001)     ;
(PID.TID 0000.0001) drC =   /* C spacing ( units of r ) */
(PID.TID 0000.0001)                 5.000000000000000E+00,      /* K =  1 */
(PID.TID 0000.0001)                 1.000000000000000E+01,      /* K =  2 */
(PID.TID 0000.0001)                 1.250000000000000E+01,      /* K =  3 */
(PID.TID 0000.0001)                 1.750000000000000E+01,      /* K =  4 */
(PID.TID 0000.0001)                 2.000000000000000E+01,      /* K =  5 */
(PID.TID 0000.0001)                 2.250000000000000E+01,      /* K =  6 */
(PID.TID 0000.0001)                 3.000000000000000E+01,      /* K =  7 */
(PID.TID 0000.0001)                 4.250000000000000E+01,      /* K =  8 */
(PID.TID 0000.0001)                 6.250000000000000E+01,      /* K =  9 */
(PID.TID 0000.0001)                 8.750000000000000E+01,      /* K = 10 */
(PID.TID 0000.0001)                 1.250000000000000E+02,      /* K = 11 */
(PID.TID 0000.0001)                 1.750000000000000E+02,      /* K = 12 */
(PID.TID 0000.0001)                 2.375000000000000E+02,      /* K = 13 */
(PID.TID 0000.0001)                 3.125000000000000E+02,      /* K = 14 */
(PID.TID 0000.0001)                 3.825000000000000E+02,      /* K = 15 */
(PID.TID 0000.0001)                 4.325000000000000E+02,      /* K = 16 */
(PID.TID 0000.0001)                 4.750000000000000E+02,      /* K = 17 */
(PID.TID 0000.0001)     6 @  5.000000000000000E+02              /* K = 18: 23 */
(PID.TID 0000.0001)     ;
(PID.TID 0000.0001) drF =   /* W spacing ( units of r ) */
(PID.TID 0000.0001)     2 @  1.000000000000000E+01,             /* K =  1:  2 */
(PID.TID 0000.0001)                 1.500000000000000E+01,      /* K =  3 */
(PID.TID 0000.0001)     2 @  2.000000000000000E+01,             /* K =  4:  5 */
(PID.TID 0000.0001)                 2.500000000000000E+01,      /* K =  6 */
(PID.TID 0000.0001)                 3.500000000000000E+01,      /* K =  7 */
(PID.TID 0000.0001)                 5.000000000000000E+01,      /* K =  8 */
(PID.TID 0000.0001)                 7.500000000000000E+01,      /* K =  9 */
(PID.TID 0000.0001)                 1.000000000000000E+02,      /* K = 10 */
(PID.TID 0000.0001)                 1.500000000000000E+02,      /* K = 11 */
(PID.TID 0000.0001)                 2.000000000000000E+02,      /* K = 12 */
(PID.TID 0000.0001)                 2.750000000000000E+02,      /* K = 13 */
(PID.TID 0000.0001)                 3.500000000000000E+02,      /* K = 14 */
(PID.TID 0000.0001)                 4.150000000000000E+02,      /* K = 15 */
(PID.TID 0000.0001)                 4.500000000000000E+02,      /* K = 16 */
(PID.TID 0000.0001)     7 @  5.000000000000000E+02              /* K = 17: 23 */
(PID.TID 0000.0001)     ;
(PID.TID 0000.0001) delX = /* U spacing ( m - cartesian, degrees - spherical ) */
(PID.TID 0000.0001)    20 @  2.000000000000000E+00              /* I =  1: 20 */
(PID.TID 0000.0001)     ;
(PID.TID 0000.0001) delY = /* V spacing ( m - cartesian, degrees - spherical ) */
(PID.TID 0000.0001)    16 @  2.000000000000000E+00              /* J =  1: 16 */
(PID.TID 0000.0001)     ;
(PID.TID 0000.0001) xgOrigin = /* X-axis origin of West  edge (cartesian: m, lat-lon: deg.) */
(PID.TID 0000.0001)                -4.200000000000000E+01
(PID.TID 0000.0001)     ;
(PID.TID 0000.0001) ygOrigin = /* Y-axis origin of South edge (cartesian: m, lat-lon: deg.) */
(PID.TID 0000.0001)                 1.000000000000000E+01
(PID.TID 0000.0001)     ;
(PID.TID 0000.0001) rSphere =  /* Radius ( ignored - cartesian, m - spherical ) */
(PID.TID 0000.0001)                 6.370000000000000E+06
(PID.TID 0000.0001)     ;
(PID.TID 0000.0001) deepAtmosphere = /* Deep/Shallow Atmosphere flag (True/False) */
(PID.TID 0000.0001)                   F
(PID.TID 0000.0001)     ;
(PID.TID 0000.0001) xC =  /* xC(:,1,:,1) : P-point X coord ( deg. or m if cartesian) */
(PID.TID 0000.0001)                -4.100000000000000E+01,      /* I =  1 */
(PID.TID 0000.0001)                -3.900000000000000E+01,      /* I =  2 */
(PID.TID 0000.0001)                -3.700000000000000E+01,      /* I =  3 */
(PID.TID 0000.0001)                -3.500000000000000E+01,      /* I =  4 */
(PID.TID 0000.0001)                -3.300000000000000E+01,      /* I =  5 */
(PID.TID 0000.0001)                -3.100000000000000E+01,      /* I =  6 */
(PID.TID 0000.0001)                -2.900000000000000E+01,      /* I =  7 */
(PID.TID 0000.0001)                -2.700000000000000E+01,      /* I =  8 */
(PID.TID 0000.0001)                -2.500000000000000E+01,      /* I =  9 */
(PID.TID 0000.0001)                -2.300000000000000E+01,      /* I = 10 */
(PID.TID 0000.0001)                -2.100000000000000E+01,      /* I = 11 */
(PID.TID 0000.0001)                -1.900000000000000E+01,      /* I = 12 */
(PID.TID 0000.0001)                -1.700000000000000E+01,      /* I = 13 */
(PID.TID 0000.0001)                -1.500000000000000E+01,      /* I = 14 */
(PID.TID 0000.0001)                -1.300000000000000E+01,      /* I = 15 */
(PID.TID 0000.0001)                -1.100000000000000E+01,      /* I = 16 */
(PID.TID 0000.0001)                -9.000000000000000E+00,      /* I = 17 */
(PID.TID 0000.0001)                -7.000000000000000E+00,      /* I = 18 */
(PID.TID 0000.0001)                -5.000000000000000E+00,      /* I = 19 */
(PID.TID 0000.0001)                -3.000000000000000E+00       /* I = 20 */
(PID.TID 0000.0001)     ;
(PID.TID 0000.0001) yC =  /* yC(1,:,1,:) : P-point Y coord ( deg. or m if cartesian) */
(PID.TID 0000.0001)                 1.100000000000000E+01,      /* J =  1 */
(PID.TID 0000.0001)                 1.300000000000000E+01,      /* J =  2 */
(PID.TID 0000.0001)                 1.500000000000000E+01,      /* J =  3 */
(PID.TID 0000.0001)                 1.700000000000000E+01,      /* J =  4 */
(PID.TID 0000.0001)                 1.900000000000000E+01,      /* J =  5 */
(PID.TID 0000.0001)                 2.100000000000000E+01,      /* J =  6 */
(PID.TID 0000.0001)                 2.300000000000000E+01,      /* J =  7 */
(PID.TID 0000.0001)                 2.500000000000000E+01,      /* J =  8 */
(PID.TID 0000.0001)                 2.700000000000000E+01,      /* J =  9 */
(PID.TID 0000.0001)                 2.900000000000000E+01,      /* J = 10 */
(PID.TID 0000.0001)                 3.100000000000000E+01,      /* J = 11 */
(PID.TID 0000.0001)                 3.300000000000000E+01,      /* J = 12 */
(PID.TID 0000.0001)                 3.500000000000000E+01,      /* J = 13 */
(PID.TID 0000.0001)                 3.700000000000000E+01,      /* J = 14 */
(PID.TID 0000.0001)                 3.900000000000000E+01,      /* J = 15 */
(PID.TID 0000.0001)                 4.100000000000000E+01       /* J = 16 */
(PID.TID 0000.0001)     ;
(PID.TID 0000.0001) rcoord = /* P-point R coordinate (  units of r ) */
(PID.TID 0000.0001)                -5.000000000000000E+00,      /* K =  1 */
(PID.TID 0000.0001)                -1.500000000000000E+01,      /* K =  2 */
(PID.TID 0000.0001)                -2.750000000000000E+01,      /* K =  3 */
(PID.TID 0000.0001)                -4.500000000000000E+01,      /* K =  4 */
(PID.TID 0000.0001)                -6.500000000000000E+01,      /* K =  5 */
(PID.TID 0000.0001)                -8.750000000000000E+01,      /* K =  6 */
(PID.TID 0000.0001)                -1.175000000000000E+02,      /* K =  7 */
(PID.TID 0000.0001)                -1.600000000000000E+02,      /* K =  8 */
(PID.TID 0000.0001)                -2.225000000000000E+02,      /* K =  9 */
(PID.TID 0000.0001)                -3.100000000000000E+02,      /* K = 10 */
(PID.TID 0000.0001)                -4.350000000000000E+02,      /* K = 11 */
(PID.TID 0000.0001)                -6.100000000000000E+02,      /* K = 12 */
(PID.TID 0000.0001)                -8.475000000000000E+02,      /* K = 13 */
(PID.TID 0000.0001)                -1.160000000000000E+03,      /* K = 14 */
(PID.TID 0000.0001)                -1.542500000000000E+03,      /* K = 15 */
(PID.TID 0000.0001)                -1.975000000000000E+03,      /* K = 16 */
(PID.TID 0000.0001)                -2.450000000000000E+03,      /* K = 17 */
(PID.TID 0000.0001)                -2.950000000000000E+03,      /* K = 18 */
(PID.TID 0000.0001)                -3.450000000000000E+03,      /* K = 19 */
(PID.TID 0000.0001)                -3.950000000000000E+03,      /* K = 20 */
(PID.TID 0000.0001)                -4.450000000000000E+03,      /* K = 21 */
(PID.TID 0000.0001)                -4.950000000000000E+03,      /* K = 22 */
(PID.TID 0000.0001)                -5.450000000000000E+03       /* K = 23 */
(PID.TID 0000.0001)     ;
(PID.TID 0000.0001) rF =   /* W-Interf. R coordinate (  units of r ) */
(PID.TID 0000.0001)                 0.000000000000000E+00,      /* K =  1 */
(PID.TID 0000.0001)                -1.000000000000000E+01,      /* K =  2 */
(PID.TID 0000.0001)                -2.000000000000000E+01,      /* K =  3 */
(PID.TID 0000.0001)                -3.500000000000000E+01,      /* K =  4 */
(PID.TID 0000.0001)                -5.500000000000000E+01,      /* K =  5 */
(PID.TID 0000.0001)                -7.500000000000000E+01,      /* K =  6 */
(PID.TID 0000.0001)                -1.000000000000000E+02,      /* K =  7 */
(PID.TID 0000.0001)                -1.350000000000000E+02,      /* K =  8 */
(PID.TID 0000.0001)                -1.850000000000000E+02,      /* K =  9 */
(PID.TID 0000.0001)                -2.600000000000000E+02,      /* K = 10 */
(PID.TID 0000.0001)                -3.600000000000000E+02,      /* K = 11 */
(PID.TID 0000.0001)                -5.100000000000000E+02,      /* K = 12 */
(PID.TID 0000.0001)                -7.100000000000000E+02,      /* K = 13 */
(PID.TID 0000.0001)                -9.850000000000000E+02,      /* K = 14 */
(PID.TID 0000.0001)                -1.335000000000000E+03,      /* K = 15 */
(PID.TID 0000.0001)                -1.750000000000000E+03,      /* K = 16 */
(PID.TID 0000.0001)                -2.200000000000000E+03,      /* K = 17 */
(PID.TID 0000.0001)                -2.700000000000000E+03,      /* K = 18 */
(PID.TID 0000.0001)                -3.200000000000000E+03,      /* K = 19 */
(PID.TID 0000.0001)                -3.700000000000000E+03,      /* K = 20 */
(PID.TID 0000.0001)                -4.200000000000000E+03,      /* K = 21 */
(PID.TID 0000.0001)                -4.700000000000000E+03,      /* K = 22 */
(PID.TID 0000.0001)                -5.200000000000000E+03,      /* K = 23 */
(PID.TID 0000.0001)                -5.700000000000000E+03       /* K = 24 */
(PID.TID 0000.0001)     ;
(PID.TID 0000.0001) deepFacC = /* deep-model grid factor @ cell-Center (-) */
(PID.TID 0000.0001)    23 @  1.000000000000000E+00              /* K =  1: 23 */
(PID.TID 0000.0001)     ;
(PID.TID 0000.0001) deepFacF = /* deep-model grid factor @ W-Interface (-) */
(PID.TID 0000.0001)    24 @  1.000000000000000E+00              /* K =  1: 24 */
(PID.TID 0000.0001)     ;
(PID.TID 0000.0001) rVel2wUnit = /* convert units: rVel -> wSpeed (=1 if z-coord)*/
(PID.TID 0000.0001)    24 @  1.000000000000000E+00              /* K =  1: 24 */
(PID.TID 0000.0001)     ;
(PID.TID 0000.0001) wUnit2rVel = /* convert units: wSpeed -> rVel (=1 if z-coord)*/
(PID.TID 0000.0001)    24 @  1.000000000000000E+00              /* K =  1: 24 */
(PID.TID 0000.0001)     ;
(PID.TID 0000.0001) dBdrRef = /* Vertical gradient of reference boyancy [(m/s/r)^2)] */
(PID.TID 0000.0001)    23 @  0.000000000000000E+00              /* K =  1: 23 */
(PID.TID 0000.0001)     ;
(PID.TID 0000.0001) rotateGrid = /* use rotated grid ( True/False ) */
(PID.TID 0000.0001)                   F
(PID.TID 0000.0001)     ;
(PID.TID 0000.0001) phiEuler = /* Euler angle, rotation about original z-coordinate [rad] */
(PID.TID 0000.0001)                 0.000000000000000E+00
(PID.TID 0000.0001)     ;
(PID.TID 0000.0001) thetaEuler = /* Euler angle, rotation about new x-coordinate [rad] */
(PID.TID 0000.0001)                 0.000000000000000E+00
(PID.TID 0000.0001)     ;
(PID.TID 0000.0001) psiEuler = /* Euler angle, rotation about new z-coordinate [rad] */
(PID.TID 0000.0001)                 0.000000000000000E+00
(PID.TID 0000.0001)     ;
(PID.TID 0000.0001) dxF =  /* dxF(:,1,:,1) ( units: m ) */
(PID.TID 0000.0001)    20 @  2.182696600587791E+05              /* I =  1: 20 */
(PID.TID 0000.0001)     ;
(PID.TID 0000.0001) dxF =  /* dxF(1,:,1,:) ( units: m ) */
(PID.TID 0000.0001)                 2.182696600587791E+05,      /* J =  1 */
(PID.TID 0000.0001)                 2.166560038253696E+05,      /* J =  2 */
(PID.TID 0000.0001)                 2.147783856245979E+05,      /* J =  3 */
(PID.TID 0000.0001)                 2.126390930450167E+05,      /* J =  4 */
(PID.TID 0000.0001)                 2.102407324851014E+05,      /* J =  5 */
(PID.TID 0000.0001)                 2.075862259777553E+05,      /* J =  6 */
(PID.TID 0000.0001)                 2.046788076302621E+05,      /* J =  7 */
(PID.TID 0000.0001)                 2.015220196840248E+05,      /* J =  8 */
(PID.TID 0000.0001)                 1.981197081988899E+05,      /* J =  9 */
(PID.TID 0000.0001)                 1.944760183673163E+05,      /* J = 10 */
(PID.TID 0000.0001)                 1.905953894640962E+05,      /* J = 11 */
(PID.TID 0000.0001)                 1.864825494377832E+05,      /* J = 12 */
(PID.TID 0000.0001)                 1.821425091504150E+05,      /* J = 13 */
(PID.TID 0000.0001)                 1.775805562725496E+05,      /* J = 14 */
(PID.TID 0000.0001)                 1.728022488410539E+05,      /* J = 15 */
(PID.TID 0000.0001)                 1.678134084874913E+05       /* J = 16 */
(PID.TID 0000.0001)     ;
(PID.TID 0000.0001) dyF =  /* dyF(:,1,:,1) ( units: m ) */
(PID.TID 0000.0001)    20 @  2.223549467040776E+05              /* I =  1: 20 */
(PID.TID 0000.0001)     ;
(PID.TID 0000.0001) dyF =  /* dyF(1,:,1,:) ( units: m ) */
(PID.TID 0000.0001)    16 @  2.223549467040776E+05              /* J =  1: 16 */
(PID.TID 0000.0001)     ;
(PID.TID 0000.0001) dxG =  /* dxG(:,1,:,1) ( units: m ) */
(PID.TID 0000.0001)    20 @  2.189768754347919E+05              /* I =  1: 20 */
(PID.TID 0000.0001)     ;
(PID.TID 0000.0001) dxG =  /* dxG(1,:,1,:) ( units: m ) */
(PID.TID 0000.0001)                 2.189768754347919E+05,      /* J =  1 */
(PID.TID 0000.0001)                 2.174959576298867E+05,      /* J =  2 */
(PID.TID 0000.0001)                 2.157500545032935E+05,      /* J =  3 */
(PID.TID 0000.0001)                 2.137412931690361E+05,      /* J =  4 */
(PID.TID 0000.0001)                 2.114721209933746E+05,      /* J =  5 */
(PID.TID 0000.0001)                 2.089453026130656E+05,      /* J =  6 */
(PID.TID 0000.0001)                 2.061639165670793E+05,      /* J =  7 */
(PID.TID 0000.0001)                 2.031313515458727E+05,      /* J =  8 */
(PID.TID 0000.0001)                 1.998513022627935E+05,      /* J =  9 */
(PID.TID 0000.0001)                 1.963277649526403E+05,      /* J = 10 */
(PID.TID 0000.0001)                 1.925650325028661E+05,      /* J = 11 */
(PID.TID 0000.0001)                 1.885676892233566E+05,      /* J = 12 */
(PID.TID 0000.0001)                 1.843406052611541E+05,      /* J = 13 */
(PID.TID 0000.0001)                 1.798889306669345E+05,      /* J = 14 */
(PID.TID 0000.0001)                 1.752180891204627E+05,      /* J = 15 */
(PID.TID 0000.0001)                 1.703337713226751E+05       /* J = 16 */
(PID.TID 0000.0001)     ;
(PID.TID 0000.0001) dyG =  /* dyG(:,1,:,1) ( units: m ) */
(PID.TID 0000.0001)    20 @  2.223549467040776E+05              /* I =  1: 20 */
(PID.TID 0000.0001)     ;
(PID.TID 0000.0001) dyG =  /* dyG(1,:,1,:) ( units: m ) */
(PID.TID 0000.0001)    16 @  2.223549467040776E+05              /* J =  1: 16 */
(PID.TID 0000.0001)     ;
(PID.TID 0000.0001) dxC =  /* dxC(:,1,:,1) ( units: m ) */
(PID.TID 0000.0001)    20 @  2.182696600587791E+05              /* I =  1: 20 */
(PID.TID 0000.0001)     ;
(PID.TID 0000.0001) dxC =  /* dxC(1,:,1,:) ( units: m ) */
(PID.TID 0000.0001)                 2.182696600587791E+05,      /* J =  1 */
(PID.TID 0000.0001)                 2.166560038253696E+05,      /* J =  2 */
(PID.TID 0000.0001)                 2.147783856245979E+05,      /* J =  3 */
(PID.TID 0000.0001)                 2.126390930450167E+05,      /* J =  4 */
(PID.TID 0000.0001)                 2.102407324851014E+05,      /* J =  5 */
(PID.TID 0000.0001)                 2.075862259777553E+05,      /* J =  6 */
(PID.TID 0000.0001)                 2.046788076302621E+05,      /* J =  7 */
(PID.TID 0000.0001)                 2.015220196840248E+05,      /* J =  8 */
(PID.TID 0000.0001)                 1.981197081988899E+05,      /* J =  9 */
(PID.TID 0000.0001)                 1.944760183673163E+05,      /* J = 10 */
(PID.TID 0000.0001)                 1.905953894640962E+05,      /* J = 11 */
(PID.TID 0000.0001)                 1.864825494377832E+05,      /* J = 12 */
(PID.TID 0000.0001)                 1.821425091504150E+05,      /* J = 13 */
(PID.TID 0000.0001)                 1.775805562725496E+05,      /* J = 14 */
(PID.TID 0000.0001)                 1.728022488410539E+05,      /* J = 15 */
(PID.TID 0000.0001)                 1.678134084874913E+05       /* J = 16 */
(PID.TID 0000.0001)     ;
(PID.TID 0000.0001) dyC =  /* dyC(:,1,:,1) ( units: m ) */
(PID.TID 0000.0001)    20 @  2.223549467040776E+05              /* I =  1: 20 */
(PID.TID 0000.0001)     ;
(PID.TID 0000.0001) dyC =  /* dyC(1,:,1,:) ( units: m ) */
(PID.TID 0000.0001)    16 @  2.223549467040776E+05              /* J =  1: 16 */
(PID.TID 0000.0001)     ;
(PID.TID 0000.0001) dxV =  /* dxV(:,1,:,1) ( units: m ) */
(PID.TID 0000.0001)    20 @  2.189768754347919E+05              /* I =  1: 20 */
(PID.TID 0000.0001)     ;
(PID.TID 0000.0001) dxV =  /* dxV(1,:,1,:) ( units: m ) */
(PID.TID 0000.0001)                 2.189768754347919E+05,      /* J =  1 */
(PID.TID 0000.0001)                 2.174959576298867E+05,      /* J =  2 */
(PID.TID 0000.0001)                 2.157500545032935E+05,      /* J =  3 */
(PID.TID 0000.0001)                 2.137412931690361E+05,      /* J =  4 */
(PID.TID 0000.0001)                 2.114721209933746E+05,      /* J =  5 */
(PID.TID 0000.0001)                 2.089453026130656E+05,      /* J =  6 */
(PID.TID 0000.0001)                 2.061639165670793E+05,      /* J =  7 */
(PID.TID 0000.0001)                 2.031313515458727E+05,      /* J =  8 */
(PID.TID 0000.0001)                 1.998513022627935E+05,      /* J =  9 */
(PID.TID 0000.0001)                 1.963277649526403E+05,      /* J = 10 */
(PID.TID 0000.0001)                 1.925650325028661E+05,      /* J = 11 */
(PID.TID 0000.0001)                 1.885676892233566E+05,      /* J = 12 */
(PID.TID 0000.0001)                 1.843406052611541E+05,      /* J = 13 */
(PID.TID 0000.0001)                 1.798889306669345E+05,      /* J = 14 */
(PID.TID 0000.0001)                 1.752180891204627E+05,      /* J = 15 */
(PID.TID 0000.0001)                 1.703337713226751E+05       /* J = 16 */
(PID.TID 0000.0001)     ;
(PID.TID 0000.0001) dyU =  /* dyU(:,1,:,1) ( units: m ) */
(PID.TID 0000.0001)    20 @  2.223549467040776E+05              /* I =  1: 20 */
(PID.TID 0000.0001)     ;
(PID.TID 0000.0001) dyU =  /* dyU(1,:,1,:) ( units: m ) */
(PID.TID 0000.0001)    16 @  2.223549467040776E+05              /* J =  1: 16 */
(PID.TID 0000.0001)     ;
(PID.TID 0000.0001) rA  =  /* rA (:,1,:,1) ( units: m^2 ) */
(PID.TID 0000.0001)    20 @  4.853087465028468E+10              /* I =  1: 20 */
(PID.TID 0000.0001)     ;
(PID.TID 0000.0001) rA  =  /* rA (1,:,1,:) ( units: m^2 ) */
(PID.TID 0000.0001)                 4.853087465028468E+10,      /* J =  1 */
(PID.TID 0000.0001)                 4.817208842057614E+10,      /* J =  2 */
(PID.TID 0000.0001)                 4.775461192146850E+10,      /* J =  3 */
(PID.TID 0000.0001)                 4.727895378376868E+10,      /* J =  4 */
(PID.TID 0000.0001)                 4.674569352364785E+10,      /* J =  5 */
(PID.TID 0000.0001)                 4.615548083659052E+10,      /* J =  6 */
(PID.TID 0000.0001)                 4.550903480584064E+10,      /* J =  7 */
(PID.TID 0000.0001)                 4.480714302630917E+10,      /* J =  8 */
(PID.TID 0000.0001)                 4.405066064501157E+10,      /* J =  9 */
(PID.TID 0000.0001)                 4.324050931920184E+10,      /* J = 10 */
(PID.TID 0000.0001)                 4.237767609347683E+10,      /* J = 11 */
(PID.TID 0000.0001)                 4.146321219721255E+10,      /* J = 12 */
(PID.TID 0000.0001)                 4.049823176380374E+10,      /* J = 13 */
(PID.TID 0000.0001)                 3.948391047326549E+10,      /* J = 14 */
(PID.TID 0000.0001)                 3.842148411984549E+10,      /* J = 15 */
(PID.TID 0000.0001)                 3.731224710640178E+10       /* J = 16 */
(PID.TID 0000.0001)     ;
(PID.TID 0000.0001) rAw =  /* rAw(:,1,:,1) ( units: m^2 ) */
(PID.TID 0000.0001)    20 @  4.853087465028468E+10              /* I =  1: 20 */
(PID.TID 0000.0001)     ;
(PID.TID 0000.0001) rAw =  /* rAw(1,:,1,:) ( units: m^2 ) */
(PID.TID 0000.0001)                 4.853087465028468E+10,      /* J =  1 */
(PID.TID 0000.0001)                 4.817208842057614E+10,      /* J =  2 */
(PID.TID 0000.0001)                 4.775461192146850E+10,      /* J =  3 */
(PID.TID 0000.0001)                 4.727895378376868E+10,      /* J =  4 */
(PID.TID 0000.0001)                 4.674569352364785E+10,      /* J =  5 */
(PID.TID 0000.0001)                 4.615548083659052E+10,      /* J =  6 */
(PID.TID 0000.0001)                 4.550903480584064E+10,      /* J =  7 */
(PID.TID 0000.0001)                 4.480714302630917E+10,      /* J =  8 */
(PID.TID 0000.0001)                 4.405066064501157E+10,      /* J =  9 */
(PID.TID 0000.0001)                 4.324050931920184E+10,      /* J = 10 */
(PID.TID 0000.0001)                 4.237767609347683E+10,      /* J = 11 */
(PID.TID 0000.0001)                 4.146321219721255E+10,      /* J = 12 */
(PID.TID 0000.0001)                 4.049823176380374E+10,      /* J = 13 */
(PID.TID 0000.0001)                 3.948391047326549E+10,      /* J = 14 */
(PID.TID 0000.0001)                 3.842148411984549E+10,      /* J = 15 */
(PID.TID 0000.0001)                 3.731224710640178E+10       /* J = 16 */
(PID.TID 0000.0001)     ;
(PID.TID 0000.0001) rAs =  /* rAs(:,1,:,1) ( units: m^2 ) */
(PID.TID 0000.0001)    20 @  4.868811950398895E+10              /* I =  1: 20 */
(PID.TID 0000.0001)     ;
(PID.TID 0000.0001) rAs =  /* rAs(1,:,1,:) ( units: m^2 ) */
(PID.TID 0000.0001)                 4.868811950398895E+10,      /* J =  1 */
(PID.TID 0000.0001)                 4.835884682203275E+10,      /* J =  2 */
(PID.TID 0000.0001)                 4.797065633433311E+10,      /* J =  3 */
(PID.TID 0000.0001)                 4.752402099120342E+10,      /* J =  4 */
(PID.TID 0000.0001)                 4.701948494900997E+10,      /* J =  5 */
(PID.TID 0000.0001)                 4.645766290720264E+10,      /* J =  6 */
(PID.TID 0000.0001)                 4.583923935939737E+10,      /* J =  7 */
(PID.TID 0000.0001)                 4.516496775942608E+10,      /* J =  8 */
(PID.TID 0000.0001)                 4.443566960336987E+10,      /* J =  9 */
(PID.TID 0000.0001)                 4.365223342869237E+10,      /* J = 10 */
(PID.TID 0000.0001)                 4.281561373169270E+10,      /* J = 11 */
(PID.TID 0000.0001)                 4.192682980460108E+10,      /* J = 12 */
(PID.TID 0000.0001)                 4.098696449372525E+10,      /* J = 13 */
(PID.TID 0000.0001)                 3.999716288017197E+10,      /* J = 14 */
(PID.TID 0000.0001)                 3.895863088473959E+10,      /* J = 15 */
(PID.TID 0000.0001)                 3.787263379869147E+10       /* J = 16 */
(PID.TID 0000.0001)     ;
(PID.TID 0000.0001) globalArea = /* Integrated horizontal Area (m^2) */
(PID.TID 0000.0001)                 8.853746056302287E+12
(PID.TID 0000.0001)     ;
(PID.TID 0000.0001) // =======================================================
(PID.TID 0000.0001) // End of Model config. summary
(PID.TID 0000.0001) // =======================================================
(PID.TID 0000.0001) 
(PID.TID 0000.0001) == Packages configuration : Check & print summary ==
(PID.TID 0000.0001) 
(PID.TID 0000.0001) GAD_CHECK: #define ALLOW_GENERIC_ADVDIFF
(PID.TID 0000.0001) KPP_CHECK: #define ALLOW_KPP
(PID.TID 0000.0001) // =======================================================
(PID.TID 0000.0001) // CONFIG_CHECK : Normal End
(PID.TID 0000.0001) // =======================================================
(PID.TID 0000.0001) 
(PID.TID 0000.0001)  MDS_READ_FIELD: opening global file: kf_climtheta
(PID.TID 0000.0001)  MDS_READ_FIELD: opening global file: kf_climsalt
(PID.TID 0000.0001) Start initial hydrostatic pressure computation
(PID.TID 0000.0001) Pressure is predetermined for buoyancyRelation OCEANIC
(PID.TID 0000.0001) 
(PID.TID 0000.0001)  MDS_READ_FIELD: opening global file: kf_tx
(PID.TID 0000.0001)  MDS_READ_FIELD: opening global file: kf_ty
(PID.TID 0000.0001)  MDS_READ_FIELD: opening global file: kf_qnet
(PID.TID 0000.0001)  MDS_READ_FIELD: opening global file: kf_empmr
(PID.TID 0000.0001)  MDS_READ_FIELD: opening global file: kf_sst
(PID.TID 0000.0001)  MDS_READ_FIELD: opening global file: kf_sss
(PID.TID 0000.0001)  MDS_READ_FIELD: opening global file: kf_sw
(PID.TID 0000.0001)  write diagnostics summary to file ioUnit:      6
Iter.Nb:         0 ; Time(s):  2.1600000000000E+04
------------------------------------------------------------------------
2D/3D diagnostics: Number of lists:     7
------------------------------------------------------------------------
listId=    1 ; file name: KPPviscA
 nFlds, nActive,       freq     &     phase        , nLev               
    1  |    1  |    -86400.000000     43200.000000 |  23
 levels:   1   2   3   4   5   6   7   8   9  10  11  12  13  14  15  16  17  18  19  20  21  22  23
 diag# | name   |   ipt  |  iMate | kLev|   count |   mate.C|           
   171 |KPPviscA|      1 |      0 |  23 |       0 |
------------------------------------------------------------------------
listId=    2 ; file name: KPPdiffS
 nFlds, nActive,       freq     &     phase        , nLev               
    1  |    1  |    -86400.000000     43200.000000 |  23
 levels:   1   2   3   4   5   6   7   8   9  10  11  12  13  14  15  16  17  18  19  20  21  22  23
 diag# | name   |   ipt  |  iMate | kLev|   count |   mate.C|           
   172 |KPPdiffS|     24 |      0 |  23 |       0 |
------------------------------------------------------------------------
listId=    3 ; file name: KPPdiffT
 nFlds, nActive,       freq     &     phase        , nLev               
    1  |    1  |    -86400.000000     43200.000000 |  23
 levels:   1   2   3   4   5   6   7   8   9  10  11  12  13  14  15  16  17  18  19  20  21  22  23
 diag# | name   |   ipt  |  iMate | kLev|   count |   mate.C|           
   173 |KPPdiffT|     47 |      0 |  23 |       0 |
------------------------------------------------------------------------
listId=    4 ; file name: KPP_ghat
 nFlds, nActive,       freq     &     phase        , nLev               
    1  |    1  |    -86400.000000     43200.000000 |  23
 levels:   1   2   3   4   5   6   7   8   9  10  11  12  13  14  15  16  17  18  19  20  21  22  23
 diag# | name   |   ipt  |  iMate | kLev|   count |   mate.C|           
   174 |KPPghat |     70 |      0 |  23 |       0 |
------------------------------------------------------------------------
listId=    5 ; file name: KPP_hbl
 nFlds, nActive,       freq     &     phase        , nLev               
    1  |    1  |    -86400.000000     43200.000000 |   1
 levels:   1
 diag# | name   |   ipt  |  iMate | kLev|   count |   mate.C|           
   175 |KPPhbl  |     93 |      0 |   1 |       0 |
------------------------------------------------------------------------
listId=    6 ; file name: KPPfrac
 nFlds, nActive,       freq     &     phase        , nLev               
    1  |    1  |    -86400.000000     43200.000000 |   1
 levels:   1
 diag# | name   |   ipt  |  iMate | kLev|   count |   mate.C|           
   176 |KPPfrac |     94 |      0 |   1 |       0 |
------------------------------------------------------------------------
listId=    7 ; file name: MXLDEPTH
 nFlds, nActive,       freq     &     phase        , nLev               
    1  |    1  |    -86400.000000     43200.000000 |   1
 levels:   1
 diag# | name   |   ipt  |  iMate | kLev|   count |   mate.C|           
    71 |MXLDEPTH|     95 |      0 |   1 |       0 |
------------------------------------------------------------------------
Global & Regional Statistics diagnostics: Number of lists:     0
------------------------------------------------------------------------
(PID.TID 0000.0001) // =======================================================
(PID.TID 0000.0001) // Model current state
(PID.TID 0000.0001) // =======================================================
(PID.TID 0000.0001) 
(PID.TID 0000.0001) // =======================================================
(PID.TID 0000.0001) // Begin MONITOR dynamic field statistics
(PID.TID 0000.0001) // =======================================================
(PID.TID 0000.0001) %MON time_tsnumber                =                     0
(PID.TID 0000.0001) %MON time_secondsf                =   2.1600000000000E+04
(PID.TID 0000.0001) %MON dynstat_eta_max              =   0.0000000000000E+00
(PID.TID 0000.0001) %MON dynstat_eta_min              =   0.0000000000000E+00
(PID.TID 0000.0001) %MON dynstat_eta_mean             =   0.0000000000000E+00
(PID.TID 0000.0001) %MON dynstat_eta_sd               =   0.0000000000000E+00
(PID.TID 0000.0001) %MON dynstat_eta_del2             =   0.0000000000000E+00
(PID.TID 0000.0001) %MON dynstat_uvel_max             =   0.0000000000000E+00
(PID.TID 0000.0001) %MON dynstat_uvel_min             =   0.0000000000000E+00
(PID.TID 0000.0001) %MON dynstat_uvel_mean            =   0.0000000000000E+00
(PID.TID 0000.0001) %MON dynstat_uvel_sd              =   0.0000000000000E+00
(PID.TID 0000.0001) %MON dynstat_uvel_del2            =   0.0000000000000E+00
(PID.TID 0000.0001) %MON dynstat_vvel_max             =   0.0000000000000E+00
(PID.TID 0000.0001) %MON dynstat_vvel_min             =   0.0000000000000E+00
(PID.TID 0000.0001) %MON dynstat_vvel_mean            =   0.0000000000000E+00
(PID.TID 0000.0001) %MON dynstat_vvel_sd              =   0.0000000000000E+00
(PID.TID 0000.0001) %MON dynstat_vvel_del2            =   0.0000000000000E+00
(PID.TID 0000.0001) %MON dynstat_wvel_max             =   0.0000000000000E+00
(PID.TID 0000.0001) %MON dynstat_wvel_min             =   0.0000000000000E+00
(PID.TID 0000.0001) %MON dynstat_wvel_mean            =   0.0000000000000E+00
(PID.TID 0000.0001) %MON dynstat_wvel_sd              =   0.0000000000000E+00
(PID.TID 0000.0001) %MON dynstat_wvel_del2            =   0.0000000000000E+00
(PID.TID 0000.0001) %MON dynstat_theta_max            =   2.6077934265137E+01
(PID.TID 0000.0001) %MON dynstat_theta_min            =   1.8064365386963E+00
(PID.TID 0000.0001) %MON dynstat_theta_mean           =   5.4784105600004E+00
(PID.TID 0000.0001) %MON dynstat_theta_sd             =   4.5923951934310E+00
(PID.TID 0000.0001) %MON dynstat_theta_del2           =   5.0898848572070E-02
(PID.TID 0000.0001) %MON dynstat_salt_max             =   3.7401638031006E+01
(PID.TID 0000.0001) %MON dynstat_salt_min             =   3.4726768493652E+01
(PID.TID 0000.0001) %MON dynstat_salt_mean            =   3.5157555715946E+01
(PID.TID 0000.0001) %MON dynstat_salt_sd              =   4.1377404390946E-01
(PID.TID 0000.0001) %MON dynstat_salt_del2            =   1.2632116608019E-02
(PID.TID 0000.0001) %MON extforcing_qnet_max          =   2.5772109985352E+01
(PID.TID 0000.0001) %MON extforcing_qnet_min          =  -1.7793640136719E+02
(PID.TID 0000.0001) %MON extforcing_qnet_mean         =  -8.6225629002468E+01
(PID.TID 0000.0001) %MON extforcing_qnet_sd           =   5.2166051016192E+01
(PID.TID 0000.0001) %MON extforcing_qnet_del2         =   8.3190743582589E+00
(PID.TID 0000.0001) %MON extforcing_qsw_max           =  -1.5340605163574E+02
(PID.TID 0000.0001) %MON extforcing_qsw_min           =  -3.1156558227539E+02
(PID.TID 0000.0001) %MON extforcing_qsw_mean          =  -2.4622679656805E+02
(PID.TID 0000.0001) %MON extforcing_qsw_sd            =   4.1213103000011E+01
(PID.TID 0000.0001) %MON extforcing_qsw_del2          =   6.0288217854617E+00
(PID.TID 0000.0001) %MON extforcing_empmr_max         =   6.3069694468254E-05
(PID.TID 0000.0001) %MON extforcing_empmr_min         =   1.2103353894055E-05
(PID.TID 0000.0001) %MON extforcing_empmr_mean        =   3.6742450533127E-05
(PID.TID 0000.0001) %MON extforcing_empmr_sd          =   1.2117638039994E-05
(PID.TID 0000.0001) %MON extforcing_empmr_del2        =   2.2638034320330E-06
(PID.TID 0000.0001) %MON advcfl_uvel_max              =   0.0000000000000E+00
(PID.TID 0000.0001) %MON advcfl_vvel_max              =   0.0000000000000E+00
(PID.TID 0000.0001) %MON advcfl_wvel_max              =   0.0000000000000E+00
(PID.TID 0000.0001) %MON advcfl_W_hf_max              =   0.0000000000000E+00
(PID.TID 0000.0001) %MON pe_b_mean                    =   0.0000000000000E+00
(PID.TID 0000.0001) %MON ke_max                       =   0.0000000000000E+00
(PID.TID 0000.0001) %MON ke_mean                      =   0.0000000000000E+00
(PID.TID 0000.0001) %MON ke_vol                       =   3.6027486600263E+16
(PID.TID 0000.0001) %MON vort_r_min                   =   0.0000000000000E+00
(PID.TID 0000.0001) %MON vort_r_max                   =   0.0000000000000E+00
(PID.TID 0000.0001) %MON vort_a_mean                  =   6.2114138811198E-05
(PID.TID 0000.0001) %MON vort_a_sd                    =   1.9250279297836E-05
(PID.TID 0000.0001) %MON vort_p_mean                  =   7.8095197769436E-05
(PID.TID 0000.0001) %MON vort_p_sd                    =   5.6519384286071E-05
(PID.TID 0000.0001) %MON surfExpan_theta_mean         =   0.0000000000000E+00
(PID.TID 0000.0001) %MON surfExpan_salt_mean          =   0.0000000000000E+00
(PID.TID 0000.0001) // =======================================================
(PID.TID 0000.0001) // End MONITOR dynamic field statistics
(PID.TID 0000.0001) // =======================================================
S/R EXTERNAL_FIELDS_LOAD: Reading new data:    1    2         0  2.160000000000E+04
(PID.TID 0000.0001)  MDS_READ_FIELD: opening global file: kf_tx
(PID.TID 0000.0001)  MDS_READ_FIELD: opening global file: kf_tx
(PID.TID 0000.0001)  MDS_READ_FIELD: opening global file: kf_ty
(PID.TID 0000.0001)  MDS_READ_FIELD: opening global file: kf_ty
(PID.TID 0000.0001)  MDS_READ_FIELD: opening global file: kf_qnet
(PID.TID 0000.0001)  MDS_READ_FIELD: opening global file: kf_qnet
(PID.TID 0000.0001)  MDS_READ_FIELD: opening global file: kf_empmr
(PID.TID 0000.0001)  MDS_READ_FIELD: opening global file: kf_empmr
(PID.TID 0000.0001)  MDS_READ_FIELD: opening global file: kf_sst
(PID.TID 0000.0001)  MDS_READ_FIELD: opening global file: kf_sst
(PID.TID 0000.0001)  MDS_READ_FIELD: opening global file: kf_sss
(PID.TID 0000.0001)  MDS_READ_FIELD: opening global file: kf_sss
(PID.TID 0000.0001)  MDS_READ_FIELD: opening global file: kf_sw
(PID.TID 0000.0001)  MDS_READ_FIELD: opening global file: kf_sw
time,SST,SSS,fu,fv,Q,E-P,i0,i1,a,b =   2.1600E+04  0.0000E+00  0.0000E+00  0.0000E+00  0.0000E+00  0.0000E+00  0.0000E+00     1     2  0.0000E+00  1.0000E+00
time,fu0,fu1,fu =   2.1600E+04  0.0000E+00  0.0000E+00  0.0000E+00  0.000000000000000E+00  1.000000000000000E+00
 cg2d: Sum(rhs),rhsMax =   1.77635683940025E-15  4.50718046056083E-01
(PID.TID 0000.0001)                    cg2d_init_res =    3.97976985192654E+00
(PID.TID 0000.0001)                       cg2d_iters =    50
(PID.TID 0000.0001)                         cg2d_res =    7.13529409840631E-14
(PID.TID 0000.0001) // =======================================================
(PID.TID 0000.0001) // Begin MONITOR dynamic field statistics
(PID.TID 0000.0001) // =======================================================
(PID.TID 0000.0001) %MON time_tsnumber                =                     1
(PID.TID 0000.0001) %MON time_secondsf                =   2.5200000000000E+04
(PID.TID 0000.0001) %MON dynstat_eta_max              =   7.9836760748431E-02
(PID.TID 0000.0001) %MON dynstat_eta_min              =  -1.0327655472326E-01
(PID.TID 0000.0001) %MON dynstat_eta_mean             =  -6.8937098333144E-18
(PID.TID 0000.0001) %MON dynstat_eta_sd               =   3.4052462395130E-02
(PID.TID 0000.0001) %MON dynstat_eta_del2             =   4.0984555727806E-03
(PID.TID 0000.0001) %MON dynstat_uvel_max             =   5.3768174897955E-02
(PID.TID 0000.0001) %MON dynstat_uvel_min             =  -4.2467572873595E-02
(PID.TID 0000.0001) %MON dynstat_uvel_mean            =  -1.7165275679105E-03
(PID.TID 0000.0001) %MON dynstat_uvel_sd              =   1.4723316365539E-03
(PID.TID 0000.0001) %MON dynstat_uvel_del2            =   4.3047781258924E-04
(PID.TID 0000.0001) %MON dynstat_vvel_max             =   1.0125026293970E-02
(PID.TID 0000.0001) %MON dynstat_vvel_min             =  -2.9292158438792E-02
(PID.TID 0000.0001) %MON dynstat_vvel_mean            =  -1.2875957687081E-04
(PID.TID 0000.0001) %MON dynstat_vvel_sd              =   1.6350028540545E-03
(PID.TID 0000.0001) %MON dynstat_vvel_del2            =   5.9224160130082E-04
(PID.TID 0000.0001) %MON dynstat_wvel_max             =   4.7445024309587E-05
(PID.TID 0000.0001) %MON dynstat_wvel_min             =  -9.2452810523346E-05
(PID.TID 0000.0001) %MON dynstat_wvel_mean            =  -6.7528723154006E-22
(PID.TID 0000.0001) %MON dynstat_wvel_sd              =   1.2604002795626E-05
(PID.TID 0000.0001) %MON dynstat_wvel_del2            =   3.1495402146218E-06
(PID.TID 0000.0001) %MON dynstat_theta_max            =   2.6076654047948E+01
(PID.TID 0000.0001) %MON dynstat_theta_min            =   1.8064390104771E+00
(PID.TID 0000.0001) %MON dynstat_theta_mean           =   5.4784296546519E+00
(PID.TID 0000.0001) %MON dynstat_theta_sd             =   4.5924594548543E+00
(PID.TID 0000.0001) %MON dynstat_theta_del2           =   5.0903686392307E-02
(PID.TID 0000.0001) %MON dynstat_salt_max             =   3.7400751159650E+01
(PID.TID 0000.0001) %MON dynstat_salt_min             =   3.4726771995658E+01
(PID.TID 0000.0001) %MON dynstat_salt_mean            =   3.5157556923008E+01
(PID.TID 0000.0001) %MON dynstat_salt_sd              =   4.1377676512749E-01
(PID.TID 0000.0001) %MON dynstat_salt_del2            =   1.2629962839164E-02
(PID.TID 0000.0001) %MON extforcing_qnet_max          =   2.5772109985352E+01
(PID.TID 0000.0001) %MON extforcing_qnet_min          =  -1.7793640136719E+02
(PID.TID 0000.0001) %MON extforcing_qnet_mean         =  -8.6225629002468E+01
(PID.TID 0000.0001) %MON extforcing_qnet_sd           =   5.2166051016192E+01
(PID.TID 0000.0001) %MON extforcing_qnet_del2         =   8.3190743582589E+00
(PID.TID 0000.0001) %MON extforcing_qsw_max           =  -1.5340605163574E+02
(PID.TID 0000.0001) %MON extforcing_qsw_min           =  -3.1156558227539E+02
(PID.TID 0000.0001) %MON extforcing_qsw_mean          =  -2.4622679656805E+02
(PID.TID 0000.0001) %MON extforcing_qsw_sd            =   4.1213103000011E+01
(PID.TID 0000.0001) %MON extforcing_qsw_del2          =   6.0288217854617E+00
(PID.TID 0000.0001) %MON extforcing_empmr_max         =   6.3069694468254E-05
(PID.TID 0000.0001) %MON extforcing_empmr_min         =   1.2103353894055E-05
(PID.TID 0000.0001) %MON extforcing_empmr_mean        =   3.6742450533127E-05
(PID.TID 0000.0001) %MON extforcing_empmr_sd          =   1.2117638039994E-05
(PID.TID 0000.0001) %MON extforcing_empmr_del2        =   2.2638034320330E-06
(PID.TID 0000.0001) %MON advcfl_uvel_max              =   1.1201557325257E-03
(PID.TID 0000.0001) %MON advcfl_vvel_max              =   4.7424971624307E-04
(PID.TID 0000.0001) %MON advcfl_wvel_max              =   2.0655310944651E-02
(PID.TID 0000.0001) %MON advcfl_W_hf_max              =   1.0497648172779E-02
(PID.TID 0000.0001) %MON pe_b_mean                    =   1.3977488762187E-06
(PID.TID 0000.0001) %MON ke_max                       =   9.5722607342244E-04
(PID.TID 0000.0001) %MON ke_mean                      =   3.4842983856204E-06
(PID.TID 0000.0001) %MON ke_vol                       =   3.6027486600263E+16
(PID.TID 0000.0001) %MON vort_r_min                   =  -2.2165902330424E-07
(PID.TID 0000.0001) %MON vort_r_max                   =   2.4532916268334E-07
(PID.TID 0000.0001) %MON vort_a_mean                  =   6.2114138811197E-05
(PID.TID 0000.0001) %MON vort_a_sd                    =   1.9248843146312E-05
(PID.TID 0000.0001) %MON vort_p_mean                  =   7.8095197769435E-05
(PID.TID 0000.0001) %MON vort_p_sd                    =   5.6516399347248E-05
(PID.TID 0000.0001) %MON surfExpan_theta_mean         =   7.5449674343293E-06
(PID.TID 0000.0001) %MON surfExpan_salt_mean          =   2.1214924697109E-06
(PID.TID 0000.0001) // =======================================================
(PID.TID 0000.0001) // End MONITOR dynamic field statistics
(PID.TID 0000.0001) // =======================================================
time,SST,SSS,fu,fv,Q,E-P,i0,i1,a,b =   2.5200E+04  0.0000E+00  0.0000E+00  0.0000E+00  0.0000E+00  0.0000E+00  0.0000E+00     1     2  8.3333E-02  9.1667E-01
time,fu0,fu1,fu =   2.5200E+04  0.0000E+00  0.0000E+00  0.0000E+00  8.333333333333333E-02  9.166666666666666E-01
 cg2d: Sum(rhs),rhsMax =   0.00000000000000E+00  5.55626553330470E-01
(PID.TID 0000.0001)                    cg2d_init_res =    9.18914810788618E-01
(PID.TID 0000.0001)                       cg2d_iters =    47
(PID.TID 0000.0001)                         cg2d_res =    6.88626264317357E-14
(PID.TID 0000.0001) // =======================================================
(PID.TID 0000.0001) // Begin MONITOR dynamic field statistics
(PID.TID 0000.0001) // =======================================================
(PID.TID 0000.0001) %MON time_tsnumber                =                     2
(PID.TID 0000.0001) %MON time_secondsf                =   2.8800000000000E+04
(PID.TID 0000.0001) %MON dynstat_eta_max              =   1.4754474092374E-01
(PID.TID 0000.0001) %MON dynstat_eta_min              =  -1.8210377804864E-01
(PID.TID 0000.0001) %MON dynstat_eta_mean             =   2.2059871466606E-17
(PID.TID 0000.0001) %MON dynstat_eta_sd               =   6.7141164898253E-02
(PID.TID 0000.0001) %MON dynstat_eta_del2             =   4.6950855532364E-03
(PID.TID 0000.0001) %MON dynstat_uvel_max             =   1.0405649597139E-01
(PID.TID 0000.0001) %MON dynstat_uvel_min             =  -7.3109417375710E-02
(PID.TID 0000.0001) %MON dynstat_uvel_mean            =  -2.1356968569933E-03
(PID.TID 0000.0001) %MON dynstat_uvel_sd              =   2.6849401028989E-03
(PID.TID 0000.0001) %MON dynstat_uvel_del2            =   8.2534252105326E-04
(PID.TID 0000.0001) %MON dynstat_vvel_max             =   2.1346283317312E-02
(PID.TID 0000.0001) %MON dynstat_vvel_min             =  -5.3388178242598E-02
(PID.TID 0000.0001) %MON dynstat_vvel_mean            =  -2.0852990643167E-04
(PID.TID 0000.0001) %MON dynstat_vvel_sd              =   2.9873934673743E-03
(PID.TID 0000.0001) %MON dynstat_vvel_del2            =   1.1678456412259E-03
(PID.TID 0000.0001) %MON dynstat_wvel_max             =   7.5978559185432E-05
(PID.TID 0000.0001) %MON dynstat_wvel_min             =  -1.4295989685742E-04
(PID.TID 0000.0001) %MON dynstat_wvel_mean            =   4.5019148769337E-22
(PID.TID 0000.0001) %MON dynstat_wvel_sd              =   1.9440973005911E-05
(PID.TID 0000.0001) %MON dynstat_wvel_del2            =   4.5236794476509E-06
(PID.TID 0000.0001) %MON dynstat_theta_max            =   2.6075142292194E+01
(PID.TID 0000.0001) %MON dynstat_theta_min            =   1.8064390244588E+00
(PID.TID 0000.0001) %MON dynstat_theta_mean           =   5.4784377095686E+00
(PID.TID 0000.0001) %MON dynstat_theta_sd             =   4.5924854817423E+00
(PID.TID 0000.0001) %MON dynstat_theta_del2           =   5.0854267512518E-02
(PID.TID 0000.0001) %MON dynstat_salt_max             =   3.7400673034209E+01
(PID.TID 0000.0001) %MON dynstat_salt_min             =   3.4726779356133E+01
(PID.TID 0000.0001) %MON dynstat_salt_mean            =   3.5157555144117E+01
(PID.TID 0000.0001) %MON dynstat_salt_sd              =   4.1376901135582E-01
(PID.TID 0000.0001) %MON dynstat_salt_del2            =   1.2629249579452E-02
(PID.TID 0000.0001) %MON extforcing_qnet_max          =   2.6062016805013E+01
(PID.TID 0000.0001) %MON extforcing_qnet_min          =  -1.7659355545044E+02
(PID.TID 0000.0001) %MON extforcing_qnet_mean         =  -8.5257431754752E+01
(PID.TID 0000.0001) %MON extforcing_qnet_sd           =   5.2007111613118E+01
(PID.TID 0000.0001) %MON extforcing_qnet_del2         =   8.2510235180408E+00
(PID.TID 0000.0001) %MON extforcing_qsw_max           =  -1.5255920283000E+02
(PID.TID 0000.0001) %MON extforcing_qsw_min           =  -3.1216041564941E+02
(PID.TID 0000.0001) %MON extforcing_qsw_mean          =  -2.4650639625986E+02
(PID.TID 0000.0001) %MON extforcing_qsw_sd            =   4.1246809110616E+01
(PID.TID 0000.0001) %MON extforcing_qsw_del2          =   5.9979608438677E+00
(PID.TID 0000.0001) %MON extforcing_empmr_max         =   6.3481127135508E-05
(PID.TID 0000.0001) %MON extforcing_empmr_min         =   1.2253066312236E-05
(PID.TID 0000.0001) %MON extforcing_empmr_mean        =   3.7131810081233E-05
(PID.TID 0000.0001) %MON extforcing_empmr_sd          =   1.2044395715904E-05
(PID.TID 0000.0001) %MON extforcing_empmr_del2        =   2.2540989364255E-06
(PID.TID 0000.0001) %MON advcfl_uvel_max              =   2.1678154538461E-03
(PID.TID 0000.0001) %MON advcfl_vvel_max              =   8.6437223242504E-04
(PID.TID 0000.0001) %MON advcfl_wvel_max              =   1.6837406448426E-02
(PID.TID 0000.0001) %MON advcfl_W_hf_max              =   1.0465015396223E-02
(PID.TID 0000.0001) %MON pe_b_mean                    =   5.4338776019771E-06
(PID.TID 0000.0001) %MON ke_max                       =   3.1030041912364E-03
(PID.TID 0000.0001) %MON ke_mean                      =   9.2389564459493E-06
(PID.TID 0000.0001) %MON ke_vol                       =   3.6027486600263E+16
(PID.TID 0000.0001) %MON vort_r_min                   =  -4.1475730945245E-07
(PID.TID 0000.0001) %MON vort_r_max                   =   4.7478072441312E-07
(PID.TID 0000.0001) %MON vort_a_mean                  =   6.2114138811197E-05
(PID.TID 0000.0001) %MON vort_a_sd                    =   1.9248500232585E-05
(PID.TID 0000.0001) %MON vort_p_mean                  =   7.8095197769435E-05
(PID.TID 0000.0001) %MON vort_p_sd                    =   5.6515435584318E-05
(PID.TID 0000.0001) %MON surfExpan_theta_mean         =   9.8634113529966E-06
(PID.TID 0000.0001) %MON surfExpan_salt_mean          =   2.1061215328772E-06
(PID.TID 0000.0001) // =======================================================
(PID.TID 0000.0001) // End MONITOR dynamic field statistics
(PID.TID 0000.0001) // =======================================================
time,SST,SSS,fu,fv,Q,E-P,i0,i1,a,b =   2.8800E+04  0.0000E+00  0.0000E+00  0.0000E+00  0.0000E+00  0.0000E+00  0.0000E+00     1     2  1.6667E-01  8.3333E-01
time,fu0,fu1,fu =   2.8800E+04  0.0000E+00  0.0000E+00  0.0000E+00  1.666666666666667E-01  8.333333333333334E-01
 cg2d: Sum(rhs),rhsMax =   3.55271367880050E-15  5.83589457394656E-01
(PID.TID 0000.0001)                    cg2d_init_res =    5.49873900574140E-01
(PID.TID 0000.0001)                       cg2d_iters =    46
(PID.TID 0000.0001)                         cg2d_res =    7.65083529028478E-14
(PID.TID 0000.0001) // =======================================================
(PID.TID 0000.0001) // Begin MONITOR dynamic field statistics
(PID.TID 0000.0001) // =======================================================
(PID.TID 0000.0001) %MON time_tsnumber                =                     3
(PID.TID 0000.0001) %MON time_secondsf                =   3.2400000000000E+04
(PID.TID 0000.0001) %MON dynstat_eta_max              =   1.8604897237169E-01
(PID.TID 0000.0001) %MON dynstat_eta_min              =  -2.3829553730006E-01
(PID.TID 0000.0001) %MON dynstat_eta_mean             =  -5.5149678666516E-18
(PID.TID 0000.0001) %MON dynstat_eta_sd               =   9.1343490126539E-02
(PID.TID 0000.0001) %MON dynstat_eta_del2             =   4.4580602314620E-03
(PID.TID 0000.0001) %MON dynstat_uvel_max             =   1.4685973328438E-01
(PID.TID 0000.0001) %MON dynstat_uvel_min             =  -9.6717172378137E-02
(PID.TID 0000.0001) %MON dynstat_uvel_mean            =  -1.6506657187197E-03
(PID.TID 0000.0001) %MON dynstat_uvel_sd              =   3.7401464368408E-03
(PID.TID 0000.0001) %MON dynstat_uvel_del2            =   1.2138981089693E-03
(PID.TID 0000.0001) %MON dynstat_vvel_max             =   3.1350449588880E-02
(PID.TID 0000.0001) %MON dynstat_vvel_min             =  -7.2662241826071E-02
(PID.TID 0000.0001) %MON dynstat_vvel_mean            =  -4.2511043146270E-04
(PID.TID 0000.0001) %MON dynstat_vvel_sd              =   4.2052480298804E-03
(PID.TID 0000.0001) %MON dynstat_vvel_del2            =   1.6588459767303E-03
(PID.TID 0000.0001) %MON dynstat_wvel_max             =   9.8686706567996E-05
(PID.TID 0000.0001) %MON dynstat_wvel_min             =  -1.7291401095370E-04
(PID.TID 0000.0001) %MON dynstat_wvel_mean            =   4.5019148769337E-22
(PID.TID 0000.0001) %MON dynstat_wvel_sd              =   2.5189900922624E-05
(PID.TID 0000.0001) %MON dynstat_wvel_del2            =   6.0615080483958E-06
(PID.TID 0000.0001) %MON dynstat_theta_max            =   2.6073527988476E+01
(PID.TID 0000.0001) %MON dynstat_theta_min            =   1.8064395690927E+00
(PID.TID 0000.0001) %MON dynstat_theta_mean           =   5.4784462718308E+00
(PID.TID 0000.0001) %MON dynstat_theta_sd             =   4.5925125829053E+00
(PID.TID 0000.0001) %MON dynstat_theta_del2           =   5.0828137672280E-02
(PID.TID 0000.0001) %MON dynstat_salt_max             =   3.7400692076789E+01
(PID.TID 0000.0001) %MON dynstat_salt_min             =   3.4726785370560E+01
(PID.TID 0000.0001) %MON dynstat_salt_mean            =   3.5157554522798E+01
(PID.TID 0000.0001) %MON dynstat_salt_sd              =   4.1376546311886E-01
(PID.TID 0000.0001) %MON dynstat_salt_del2            =   1.2629080526061E-02
(PID.TID 0000.0001) %MON extforcing_qnet_max          =   2.6353609720866E+01
(PID.TID 0000.0001) %MON extforcing_qnet_min          =  -1.7525070953369E+02
(PID.TID 0000.0001) %MON extforcing_qnet_mean         =  -8.4289234507036E+01
(PID.TID 0000.0001) %MON extforcing_qnet_sd           =   5.1878062558190E+01
(PID.TID 0000.0001) %MON extforcing_qnet_del2         =   8.1954923889711E+00
(PID.TID 0000.0001) %MON extforcing_qsw_max           =  -1.5171235402425E+02
(PID.TID 0000.0001) %MON extforcing_qsw_min           =  -3.1275524902344E+02
(PID.TID 0000.0001) %MON extforcing_qsw_mean          =  -2.4678599595167E+02
(PID.TID 0000.0001) %MON extforcing_qsw_sd            =   4.1303728041958E+01
(PID.TID 0000.0001) %MON extforcing_qsw_del2          =   5.9685850973395E+00
(PID.TID 0000.0001) %MON extforcing_empmr_max         =   6.3953881584903E-05
(PID.TID 0000.0001) %MON extforcing_empmr_min         =   1.2402778730417E-05
(PID.TID 0000.0001) %MON extforcing_empmr_mean        =   3.7521169629339E-05
(PID.TID 0000.0001) %MON extforcing_empmr_sd          =   1.1981030382910E-05
(PID.TID 0000.0001) %MON extforcing_empmr_del2        =   2.2503087950644E-06
(PID.TID 0000.0001) %MON advcfl_uvel_max              =   3.0595379595440E-03
(PID.TID 0000.0001) %MON advcfl_vvel_max              =   1.1764256853794E-03
(PID.TID 0000.0001) %MON advcfl_wvel_max              =   1.4123116336179E-02
(PID.TID 0000.0001) %MON advcfl_W_hf_max              =   9.9530980732205E-03
(PID.TID 0000.0001) %MON pe_b_mean                    =   1.0057436765245E-05
(PID.TID 0000.0001) %MON ke_max                       =   6.2675022653541E-03
(PID.TID 0000.0001) %MON ke_mean                      =   1.5372719480468E-05
(PID.TID 0000.0001) %MON ke_vol                       =   3.6027486600263E+16
(PID.TID 0000.0001) %MON vort_r_min                   =  -5.5354005707436E-07
(PID.TID 0000.0001) %MON vort_r_max                   =   6.7007993979587E-07
(PID.TID 0000.0001) %MON vort_a_mean                  =   6.2114138811197E-05
(PID.TID 0000.0001) %MON vort_a_sd                    =   1.9248914416947E-05
(PID.TID 0000.0001) %MON vort_p_mean                  =   7.8095197769435E-05
(PID.TID 0000.0001) %MON vort_p_sd                    =   5.6516127437889E-05
(PID.TID 0000.0001) %MON surfExpan_theta_mean         =   9.4555428783748E-06
(PID.TID 0000.0001) %MON surfExpan_salt_mean          =   1.1913426913954E-06
(PID.TID 0000.0001) // =======================================================
(PID.TID 0000.0001) // End MONITOR dynamic field statistics
(PID.TID 0000.0001) // =======================================================
time,SST,SSS,fu,fv,Q,E-P,i0,i1,a,b =   3.2400E+04  0.0000E+00  0.0000E+00  0.0000E+00  0.0000E+00  0.0000E+00  0.0000E+00     1     2  2.5000E-01  7.5000E-01
time,fu0,fu1,fu =   3.2400E+04  0.0000E+00  0.0000E+00  0.0000E+00  2.500000000000000E-01  7.500000000000000E-01
 cg2d: Sum(rhs),rhsMax =   2.66453525910038E-15  6.07241578492086E-01
(PID.TID 0000.0001)                    cg2d_init_res =    2.97277997746316E-01
(PID.TID 0000.0001)                       cg2d_iters =    47
(PID.TID 0000.0001)                         cg2d_res =    5.05169356236092E-14
(PID.TID 0000.0001) // =======================================================
(PID.TID 0000.0001) // Begin MONITOR dynamic field statistics
(PID.TID 0000.0001) // =======================================================
(PID.TID 0000.0001) %MON time_tsnumber                =                     4
(PID.TID 0000.0001) %MON time_secondsf                =   3.6000000000000E+04
(PID.TID 0000.0001) %MON dynstat_eta_max              =   1.9637454896658E-01
(PID.TID 0000.0001) %MON dynstat_eta_min              =  -2.7137000156629E-01
(PID.TID 0000.0001) %MON dynstat_eta_mean             =   6.6179614399819E-17
(PID.TID 0000.0001) %MON dynstat_eta_sd               =   1.0332699637328E-01
(PID.TID 0000.0001) %MON dynstat_eta_del2             =   4.4231408627993E-03
(PID.TID 0000.0001) %MON dynstat_uvel_max             =   1.7704774398846E-01
(PID.TID 0000.0001) %MON dynstat_uvel_min             =  -1.1583834607898E-01
(PID.TID 0000.0001) %MON dynstat_uvel_mean            =  -8.1551294766505E-04
(PID.TID 0000.0001) %MON dynstat_uvel_sd              =   4.7570002419396E-03
(PID.TID 0000.0001) %MON dynstat_uvel_del2            =   1.6007771375776E-03
(PID.TID 0000.0001) %MON dynstat_vvel_max             =   3.9282547521179E-02
(PID.TID 0000.0001) %MON dynstat_vvel_min             =  -9.0595309102855E-02
(PID.TID 0000.0001) %MON dynstat_vvel_mean            =  -6.6475372664717E-04
(PID.TID 0000.0001) %MON dynstat_vvel_sd              =   5.2256826058698E-03
(PID.TID 0000.0001) %MON dynstat_vvel_del2            =   2.0490879055835E-03
(PID.TID 0000.0001) %MON dynstat_wvel_max             =   1.1360885864253E-04
(PID.TID 0000.0001) %MON dynstat_wvel_min             =  -1.8433198865012E-04
(PID.TID 0000.0001) %MON dynstat_wvel_mean            =   2.0258616946202E-21
(PID.TID 0000.0001) %MON dynstat_wvel_sd              =   2.9973457423591E-05
(PID.TID 0000.0001) %MON dynstat_wvel_del2            =   7.3532271101795E-06
(PID.TID 0000.0001) %MON dynstat_theta_max            =   2.6071813342741E+01
(PID.TID 0000.0001) %MON dynstat_theta_min            =   1.8064406169865E+00
(PID.TID 0000.0001) %MON dynstat_theta_mean           =   5.4784564251454E+00
(PID.TID 0000.0001) %MON dynstat_theta_sd             =   4.5925445652865E+00
(PID.TID 0000.0001) %MON dynstat_theta_del2           =   5.0797632521750E-02
(PID.TID 0000.0001) %MON dynstat_salt_max             =   3.7400960459832E+01
(PID.TID 0000.0001) %MON dynstat_salt_min             =   3.4726790538196E+01
(PID.TID 0000.0001) %MON dynstat_salt_mean            =   3.5157555197952E+01
(PID.TID 0000.0001) %MON dynstat_salt_sd              =   4.1376635174790E-01
(PID.TID 0000.0001) %MON dynstat_salt_del2            =   1.2628704463712E-02
(PID.TID 0000.0001) %MON extforcing_qnet_max          =   2.7849277496338E+01
(PID.TID 0000.0001) %MON extforcing_qnet_min          =  -1.7390786361694E+02
(PID.TID 0000.0001) %MON extforcing_qnet_mean         =  -8.3321037259321E+01
(PID.TID 0000.0001) %MON extforcing_qnet_sd           =   5.1779127338922E+01
(PID.TID 0000.0001) %MON extforcing_qnet_del2         =   8.1563966591370E+00
(PID.TID 0000.0001) %MON extforcing_qsw_max           =  -1.5086550521851E+02
(PID.TID 0000.0001) %MON extforcing_qsw_min           =  -3.1335008239746E+02
(PID.TID 0000.0001) %MON extforcing_qsw_mean          =  -2.4706559564349E+02
(PID.TID 0000.0001) %MON extforcing_qsw_sd            =   4.1383764013908E+01
(PID.TID 0000.0001) %MON extforcing_qsw_del2          =   5.9498440314984E+00
(PID.TID 0000.0001) %MON extforcing_empmr_max         =   6.4426636034298E-05
(PID.TID 0000.0001) %MON extforcing_empmr_min         =   1.2552491148599E-05
(PID.TID 0000.0001) %MON extforcing_empmr_mean        =   3.7910529177446E-05
(PID.TID 0000.0001) %MON extforcing_empmr_sd          =   1.1927699455179E-05
(PID.TID 0000.0001) %MON extforcing_empmr_del2        =   2.2496353002382E-06
(PID.TID 0000.0001) %MON advcfl_uvel_max              =   3.6884466645149E-03
(PID.TID 0000.0001) %MON advcfl_vvel_max              =   1.4667679653843E-03
(PID.TID 0000.0001) %MON advcfl_wvel_max              =   8.8123013256194E-03
(PID.TID 0000.0001) %MON advcfl_W_hf_max              =   7.0592624154590E-03
(PID.TID 0000.0001) %MON pe_b_mean                    =   1.2869442024339E-05
(PID.TID 0000.0001) %MON ke_max                       =   9.3035726184715E-03
(PID.TID 0000.0001) %MON ke_mean                      =   2.2677753092554E-05
(PID.TID 0000.0001) %MON ke_vol                       =   3.6027486600263E+16
(PID.TID 0000.0001) %MON vort_r_min                   =  -6.3299680920887E-07
(PID.TID 0000.0001) %MON vort_r_max                   =   8.0781940004653E-07
(PID.TID 0000.0001) %MON vort_a_mean                  =   6.2114138811197E-05
(PID.TID 0000.0001) %MON vort_a_sd                    =   1.9249620606765E-05
(PID.TID 0000.0001) %MON vort_p_mean                  =   7.8095197769435E-05
(PID.TID 0000.0001) %MON vort_p_sd                    =   5.6517667155265E-05
(PID.TID 0000.0001) %MON surfExpan_theta_mean         =   7.8297250316652E-06
(PID.TID 0000.0001) %MON surfExpan_salt_mean          =   2.1685759293386E-07
(PID.TID 0000.0001) // =======================================================
(PID.TID 0000.0001) // End MONITOR dynamic field statistics
(PID.TID 0000.0001) // =======================================================
time,SST,SSS,fu,fv,Q,E-P,i0,i1,a,b =   3.6000E+04  0.0000E+00  0.0000E+00  0.0000E+00  0.0000E+00  0.0000E+00  0.0000E+00     1     2  3.3333E-01  6.6667E-01
time,fu0,fu1,fu =   3.6000E+04  0.0000E+00  0.0000E+00  0.0000E+00  3.333333333333333E-01  6.666666666666667E-01
 cg2d: Sum(rhs),rhsMax =  -3.55271367880050E-15  6.21323273352924E-01
(PID.TID 0000.0001)                    cg2d_init_res =    2.45997895833004E-01
(PID.TID 0000.0001)                       cg2d_iters =    47
(PID.TID 0000.0001)                         cg2d_res =    3.92955110679105E-14
(PID.TID 0000.0001) // =======================================================
(PID.TID 0000.0001) // Begin MONITOR dynamic field statistics
(PID.TID 0000.0001) // =======================================================
(PID.TID 0000.0001) %MON time_tsnumber                =                     5
(PID.TID 0000.0001) %MON time_secondsf                =   3.9600000000000E+04
(PID.TID 0000.0001) %MON dynstat_eta_max              =   1.8817560850635E-01
(PID.TID 0000.0001) %MON dynstat_eta_min              =  -2.8338237793283E-01
(PID.TID 0000.0001) %MON dynstat_eta_mean             =   6.0664646533167E-17
(PID.TID 0000.0001) %MON dynstat_eta_sd               =   1.0495271974956E-01
(PID.TID 0000.0001) %MON dynstat_eta_del2             =   4.5223205228856E-03
(PID.TID 0000.0001) %MON dynstat_uvel_max             =   1.7877961470864E-01
(PID.TID 0000.0001) %MON dynstat_uvel_min             =  -1.3243755984784E-01
(PID.TID 0000.0001) %MON dynstat_uvel_mean            =  -5.2652314310615E-05
(PID.TID 0000.0001) %MON dynstat_uvel_sd              =   5.7455886704266E-03
(PID.TID 0000.0001) %MON dynstat_uvel_del2            =   1.9822524426212E-03
(PID.TID 0000.0001) %MON dynstat_vvel_max             =   4.4754670441465E-02
(PID.TID 0000.0001) %MON dynstat_vvel_min             =  -1.0867227940123E-01
(PID.TID 0000.0001) %MON dynstat_vvel_mean            =  -7.6771769731686E-04
(PID.TID 0000.0001) %MON dynstat_vvel_sd              =   6.0193698390721E-03
(PID.TID 0000.0001) %MON dynstat_vvel_del2            =   2.3233251774891E-03
(PID.TID 0000.0001) %MON dynstat_wvel_max             =   1.1980329625410E-04
(PID.TID 0000.0001) %MON dynstat_wvel_min             =  -1.7804097974566E-04
(PID.TID 0000.0001) %MON dynstat_wvel_mean            =   6.7528723154006E-22
(PID.TID 0000.0001) %MON dynstat_wvel_sd              =   3.3493138141586E-05
(PID.TID 0000.0001) %MON dynstat_wvel_del2            =   8.2357935155077E-06
(PID.TID 0000.0001) %MON dynstat_theta_max            =   2.6070068280261E+01
(PID.TID 0000.0001) %MON dynstat_theta_min            =   1.8064422308758E+00
(PID.TID 0000.0001) %MON dynstat_theta_mean           =   5.4784684483520E+00
(PID.TID 0000.0001) %MON dynstat_theta_sd             =   4.5925826941630E+00
(PID.TID 0000.0001) %MON dynstat_theta_del2           =   5.0765679386825E-02
(PID.TID 0000.0001) %MON dynstat_salt_max             =   3.7401224110791E+01
(PID.TID 0000.0001) %MON dynstat_salt_min             =   3.4726794352298E+01
(PID.TID 0000.0001) %MON dynstat_salt_mean            =   3.5157556776867E+01
(PID.TID 0000.0001) %MON dynstat_salt_sd              =   4.1377003530415E-01
(PID.TID 0000.0001) %MON dynstat_salt_del2            =   1.2628618693838E-02
(PID.TID 0000.0001) %MON extforcing_qnet_max          =   2.9530278523763E+01
(PID.TID 0000.0001) %MON extforcing_qnet_min          =  -1.7256501770020E+02
(PID.TID 0000.0001) %MON extforcing_qnet_mean         =  -8.2352840011605E+01
(PID.TID 0000.0001) %MON extforcing_qnet_sd           =   5.1710478801745E+01
(PID.TID 0000.0001) %MON extforcing_qnet_del2         =   8.1218630723374E+00
(PID.TID 0000.0001) %MON extforcing_qsw_max           =  -1.5001865641276E+02
(PID.TID 0000.0001) %MON extforcing_qsw_min           =  -3.1394491577148E+02
(PID.TID 0000.0001) %MON extforcing_qsw_mean          =  -2.4734519533530E+02
(PID.TID 0000.0001) %MON extforcing_qsw_sd            =   4.1486783235049E+01
(PID.TID 0000.0001) %MON extforcing_qsw_del2          =   5.9332652099810E+00
(PID.TID 0000.0001) %MON extforcing_empmr_max         =   6.4899390483693E-05
(PID.TID 0000.0001) %MON extforcing_empmr_min         =   1.2702203566780E-05
(PID.TID 0000.0001) %MON extforcing_empmr_mean        =   3.8299888725552E-05
(PID.TID 0000.0001) %MON extforcing_empmr_sd          =   1.1884538019288E-05
(PID.TID 0000.0001) %MON extforcing_empmr_del2        =   2.2496460070999E-06
(PID.TID 0000.0001) %MON advcfl_uvel_max              =   3.7245268349668E-03
(PID.TID 0000.0001) %MON advcfl_vvel_max              =   1.7594400828199E-03
(PID.TID 0000.0001) %MON advcfl_wvel_max              =   4.3143811441858E-03
(PID.TID 0000.0001) %MON advcfl_W_hf_max              =   4.0542922174401E-03
(PID.TID 0000.0001) %MON pe_b_mean                    =   1.3277597601615E-05
(PID.TID 0000.0001) %MON ke_max                       =   9.9815772872483E-03
(PID.TID 0000.0001) %MON ke_mean                      =   3.1039726443850E-05
(PID.TID 0000.0001) %MON ke_vol                       =   3.6027486600263E+16
(PID.TID 0000.0001) %MON vort_r_min                   =  -6.0026423087069E-07
(PID.TID 0000.0001) %MON vort_r_max                   =   8.1572144236924E-07
(PID.TID 0000.0001) %MON vort_a_mean                  =   6.2114138811197E-05
(PID.TID 0000.0001) %MON vort_a_sd                    =   1.9250263774499E-05
(PID.TID 0000.0001) %MON vort_p_mean                  =   7.8095197769435E-05
(PID.TID 0000.0001) %MON vort_p_sd                    =   5.6519349822734E-05
(PID.TID 0000.0001) %MON surfExpan_theta_mean         =   5.5647533407171E-06
(PID.TID 0000.0001) %MON surfExpan_salt_mean          =  -4.7573920051419E-07
(PID.TID 0000.0001) // =======================================================
(PID.TID 0000.0001) // End MONITOR dynamic field statistics
(PID.TID 0000.0001) // =======================================================
time,SST,SSS,fu,fv,Q,E-P,i0,i1,a,b =   3.9600E+04  0.0000E+00  0.0000E+00  0.0000E+00  0.0000E+00  0.0000E+00  0.0000E+00     1     2  4.1667E-01  5.8333E-01
time,fu0,fu1,fu =   3.9600E+04  0.0000E+00  0.0000E+00  0.0000E+00  4.166666666666667E-01  5.833333333333333E-01
 cg2d: Sum(rhs),rhsMax =  -1.06581410364015E-14  6.21867407609555E-01
(PID.TID 0000.0001)                    cg2d_init_res =    2.81429666127980E-01
(PID.TID 0000.0001)                       cg2d_iters =    47
(PID.TID 0000.0001)                         cg2d_res =    4.15374282773992E-14
(PID.TID 0000.0001) // =======================================================
(PID.TID 0000.0001) // Begin MONITOR dynamic field statistics
(PID.TID 0000.0001) // =======================================================
(PID.TID 0000.0001) %MON time_tsnumber                =                     6
(PID.TID 0000.0001) %MON time_secondsf                =   4.3200000000000E+04
(PID.TID 0000.0001) %MON dynstat_eta_max              =   1.8442305317342E-01
(PID.TID 0000.0001) %MON dynstat_eta_min              =  -2.7978729282449E-01
(PID.TID 0000.0001) %MON dynstat_eta_mean             =   5.5149678666516E-18
(PID.TID 0000.0001) %MON dynstat_eta_sd               =   1.0065560309502E-01
(PID.TID 0000.0001) %MON dynstat_eta_del2             =   4.5958450050570E-03
(PID.TID 0000.0001) %MON dynstat_uvel_max             =   1.6489277215080E-01
(PID.TID 0000.0001) %MON dynstat_uvel_min             =  -1.4725994767396E-01
(PID.TID 0000.0001) %MON dynstat_uvel_mean            =   4.2988700861726E-04
(PID.TID 0000.0001) %MON dynstat_uvel_sd              =   6.6711039824520E-03
(PID.TID 0000.0001) %MON dynstat_uvel_del2            =   2.3477407875483E-03
(PID.TID 0000.0001) %MON dynstat_vvel_max             =   4.7489962314391E-02
(PID.TID 0000.0001) %MON dynstat_vvel_min             =  -1.2104723840437E-01
(PID.TID 0000.0001) %MON dynstat_vvel_mean            =  -6.6100061881701E-04
(PID.TID 0000.0001) %MON dynstat_vvel_sd              =   6.5891358983473E-03
(PID.TID 0000.0001) %MON dynstat_vvel_del2            =   2.4728547738891E-03
(PID.TID 0000.0001) %MON dynstat_wvel_max             =   1.3272508997487E-04
(PID.TID 0000.0001) %MON dynstat_wvel_min             =  -1.5679766744744E-04
(PID.TID 0000.0001) %MON dynstat_wvel_mean            =   8.4410903942507E-23
(PID.TID 0000.0001) %MON dynstat_wvel_sd              =   3.5607453420371E-05
(PID.TID 0000.0001) %MON dynstat_wvel_del2            =   8.6838923870306E-06
(PID.TID 0000.0001) %MON dynstat_theta_max            =   2.6075022535696E+01
(PID.TID 0000.0001) %MON dynstat_theta_min            =   1.8064442785123E+00
(PID.TID 0000.0001) %MON dynstat_theta_mean           =   5.4784826015124E+00
(PID.TID 0000.0001) %MON dynstat_theta_sd             =   4.5926282285807E+00
(PID.TID 0000.0001) %MON dynstat_theta_del2           =   5.0737070122501E-02
(PID.TID 0000.0001) %MON dynstat_salt_max             =   3.7401486174872E+01
(PID.TID 0000.0001) %MON dynstat_salt_min             =   3.4726796700524E+01
(PID.TID 0000.0001) %MON dynstat_salt_mean            =   3.5157558828894E+01
(PID.TID 0000.0001) %MON dynstat_salt_sd              =   4.1377511508651E-01
(PID.TID 0000.0001) %MON dynstat_salt_del2            =   1.2628557094114E-02
(PID.TID 0000.0001) %MON extforcing_qnet_max          =   3.2348238627116E+01
(PID.TID 0000.0001) %MON extforcing_qnet_min          =  -1.7122217178345E+02
(PID.TID 0000.0001) %MON extforcing_qnet_mean         =  -8.1384642763889E+01
(PID.TID 0000.0001) %MON extforcing_qnet_sd           =   5.1672237657836E+01
(PID.TID 0000.0001) %MON extforcing_qnet_del2         =   8.1030238077950E+00
(PID.TID 0000.0001) %MON extforcing_qsw_max           =  -1.4917180760701E+02
(PID.TID 0000.0001) %MON extforcing_qsw_min           =  -3.1453974914551E+02
(PID.TID 0000.0001) %MON extforcing_qsw_mean          =  -2.4762479502712E+02
(PID.TID 0000.0001) %MON extforcing_qsw_sd            =   4.1612615008714E+01
(PID.TID 0000.0001) %MON extforcing_qsw_del2          =   5.9226507240133E+00
(PID.TID 0000.0001) %MON extforcing_empmr_max         =   6.5372144933088E-05
(PID.TID 0000.0001) %MON extforcing_empmr_min         =   1.2851915984961E-05
(PID.TID 0000.0001) %MON extforcing_empmr_mean        =   3.8689248273659E-05
(PID.TID 0000.0001) %MON extforcing_empmr_sd          =   1.1851657181705E-05
(PID.TID 0000.0001) %MON extforcing_empmr_del2        =   2.2510213879891E-06
(PID.TID 0000.0001) %MON advcfl_uvel_max              =   3.4352213800695E-03
(PID.TID 0000.0001) %MON advcfl_vvel_max              =   1.9597947548056E-03
(PID.TID 0000.0001) %MON advcfl_wvel_max              =   6.3666817086809E-03
(PID.TID 0000.0001) %MON advcfl_W_hf_max              =   4.4553043104607E-03
(PID.TID 0000.0001) %MON pe_b_mean                    =   1.2212596782008E-05
(PID.TID 0000.0001) %MON ke_max                       =   1.0808669962016E-02
(PID.TID 0000.0001) %MON ke_mean                      =   3.9384709544139E-05
(PID.TID 0000.0001) %MON ke_vol                       =   3.6027486600263E+16
(PID.TID 0000.0001) %MON vort_r_min                   =  -5.1406819600946E-07
(PID.TID 0000.0001) %MON vort_r_max                   =   7.5235965887004E-07
(PID.TID 0000.0001) %MON vort_a_mean                  =   6.2114138811197E-05
(PID.TID 0000.0001) %MON vort_a_sd                    =   1.9250668672136E-05
(PID.TID 0000.0001) %MON vort_p_mean                  =   7.8095197769435E-05
(PID.TID 0000.0001) %MON vort_p_sd                    =   5.6520715676758E-05
(PID.TID 0000.0001) %MON surfExpan_theta_mean         =   2.9382477595656E-06
(PID.TID 0000.0001) %MON surfExpan_salt_mean          =  -7.8924349279157E-07
(PID.TID 0000.0001) // =======================================================
(PID.TID 0000.0001) // End MONITOR dynamic field statistics
(PID.TID 0000.0001) // =======================================================
time,SST,SSS,fu,fv,Q,E-P,i0,i1,a,b =   4.3200E+04  0.0000E+00  0.0000E+00  0.0000E+00  0.0000E+00  0.0000E+00  0.0000E+00     1     2  5.0000E-01  5.0000E-01
time,fu0,fu1,fu =   4.3200E+04  0.0000E+00  0.0000E+00  0.0000E+00  5.000000000000000E-01  5.000000000000000E-01
 cg2d: Sum(rhs),rhsMax =  -1.77635683940025E-15  6.11328356350353E-01
(PID.TID 0000.0001)                    cg2d_init_res =    2.63382854852794E-01
(PID.TID 0000.0001)                       cg2d_iters =    47
(PID.TID 0000.0001)                         cg2d_res =    4.30510187053094E-14
(PID.TID 0000.0001) // =======================================================
(PID.TID 0000.0001) // Begin MONITOR dynamic field statistics
(PID.TID 0000.0001) // =======================================================
(PID.TID 0000.0001) %MON time_tsnumber                =                     7
(PID.TID 0000.0001) %MON time_secondsf                =   4.6800000000000E+04
(PID.TID 0000.0001) %MON dynstat_eta_max              =   1.7629375159491E-01
(PID.TID 0000.0001) %MON dynstat_eta_min              =  -2.6858849802957E-01
(PID.TID 0000.0001) %MON dynstat_eta_mean             =   4.4119742933212E-17
(PID.TID 0000.0001) %MON dynstat_eta_sd               =   9.4069330635768E-02
(PID.TID 0000.0001) %MON dynstat_eta_del2             =   4.6242163514268E-03
(PID.TID 0000.0001) %MON dynstat_uvel_max             =   1.4519246503597E-01
(PID.TID 0000.0001) %MON dynstat_uvel_min             =  -1.6050409346167E-01
(PID.TID 0000.0001) %MON dynstat_uvel_mean            =   6.0842329364630E-04
(PID.TID 0000.0001) %MON dynstat_uvel_sd              =   7.4931701214248E-03
(PID.TID 0000.0001) %MON dynstat_uvel_del2            =   2.6826072691099E-03
(PID.TID 0000.0001) %MON dynstat_vvel_max             =   4.9408988268064E-02
(PID.TID 0000.0001) %MON dynstat_vvel_min             =  -1.2683077684535E-01
(PID.TID 0000.0001) %MON dynstat_vvel_mean            =  -3.8132196671803E-04
(PID.TID 0000.0001) %MON dynstat_vvel_sd              =   6.9604574949934E-03
(PID.TID 0000.0001) %MON dynstat_vvel_del2            =   2.5063117133894E-03
(PID.TID 0000.0001) %MON dynstat_wvel_max             =   1.3797504155894E-04
(PID.TID 0000.0001) %MON dynstat_wvel_min             =  -1.5761925035704E-04
(PID.TID 0000.0001) %MON dynstat_wvel_mean            =   1.1254787192334E-22
(PID.TID 0000.0001) %MON dynstat_wvel_sd              =   3.6396564018750E-05
(PID.TID 0000.0001) %MON dynstat_wvel_del2            =   8.6929395494563E-06
(PID.TID 0000.0001) %MON dynstat_theta_max            =   2.6081689528474E+01
(PID.TID 0000.0001) %MON dynstat_theta_min            =   1.8064465242740E+00
(PID.TID 0000.0001) %MON dynstat_theta_mean           =   5.4784990577065E+00
(PID.TID 0000.0001) %MON dynstat_theta_sd             =   4.5926820827314E+00
(PID.TID 0000.0001) %MON dynstat_theta_del2           =   5.0717203257904E-02
(PID.TID 0000.0001) %MON dynstat_salt_max             =   3.7401750126246E+01
(PID.TID 0000.0001) %MON dynstat_salt_min             =   3.4726797998415E+01
(PID.TID 0000.0001) %MON dynstat_salt_mean            =   3.5157560967168E+01
(PID.TID 0000.0001) %MON dynstat_salt_sd              =   4.1378052990798E-01
(PID.TID 0000.0001) %MON dynstat_salt_del2            =   1.2628522261620E-02
(PID.TID 0000.0001) %MON extforcing_qnet_max          =   3.5166198730469E+01
(PID.TID 0000.0001) %MON extforcing_qnet_min          =  -1.6987932586670E+02
(PID.TID 0000.0001) %MON extforcing_qnet_mean         =  -8.0416445516173E+01
(PID.TID 0000.0001) %MON extforcing_qnet_sd           =   5.1664471428311E+01
(PID.TID 0000.0001) %MON extforcing_qnet_del2         =   8.0872703890495E+00
(PID.TID 0000.0001) %MON extforcing_qsw_max           =  -1.4832495880127E+02
(PID.TID 0000.0001) %MON extforcing_qsw_min           =  -3.1513458251953E+02
(PID.TID 0000.0001) %MON extforcing_qsw_mean          =  -2.4790439471893E+02
(PID.TID 0000.0001) %MON extforcing_qsw_sd            =   4.1761053123375E+01
(PID.TID 0000.0001) %MON extforcing_qsw_del2          =   5.9130193400266E+00
(PID.TID 0000.0001) %MON extforcing_empmr_max         =   6.5844899382483E-05
(PID.TID 0000.0001) %MON extforcing_empmr_min         =   1.3001628403142E-05
(PID.TID 0000.0001) %MON extforcing_empmr_mean        =   3.9078607821765E-05
(PID.TID 0000.0001) %MON extforcing_empmr_sd          =   1.1829142672036E-05
(PID.TID 0000.0001) %MON extforcing_empmr_del2        =   2.2531052097796E-06
(PID.TID 0000.0001) %MON advcfl_uvel_max              =   3.0248036564054E-03
(PID.TID 0000.0001) %MON advcfl_vvel_max              =   2.0534321516621E-03
(PID.TID 0000.0001) %MON advcfl_wvel_max              =   6.3758445434286E-03
(PID.TID 0000.0001) %MON advcfl_W_hf_max              =   5.7364730266456E-03
(PID.TID 0000.0001) %MON pe_b_mean                    =   1.0666654181186E-05
(PID.TID 0000.0001) %MON ke_max                       =   1.2822099453350E-02
(PID.TID 0000.0001) %MON ke_mean                      =   4.6793073759932E-05
(PID.TID 0000.0001) %MON ke_vol                       =   3.6027486600263E+16
(PID.TID 0000.0001) %MON vort_r_min                   =  -4.1873703834328E-07
(PID.TID 0000.0001) %MON vort_r_max                   =   7.0078795014810E-07
(PID.TID 0000.0001) %MON vort_a_mean                  =   6.2114138811197E-05
(PID.TID 0000.0001) %MON vort_a_sd                    =   1.9250815700860E-05
(PID.TID 0000.0001) %MON vort_p_mean                  =   7.8095197769436E-05
(PID.TID 0000.0001) %MON vort_p_sd                    =   5.6521549388344E-05
(PID.TID 0000.0001) %MON surfExpan_theta_mean         =   2.7995066113665E-07
(PID.TID 0000.0001) %MON surfExpan_salt_mean          =  -7.5285036330510E-07
(PID.TID 0000.0001) // =======================================================
(PID.TID 0000.0001) // End MONITOR dynamic field statistics
(PID.TID 0000.0001) // =======================================================
 Computing Diagnostic #    171  KPPviscA     Counter:       1   Parms: SM P    UR      
 Computing Diagnostic #    172  KPPdiffS     Counter:       1   Parms: SM P    UR      
 Computing Diagnostic #    173  KPPdiffT     Counter:       1   Parms: SM P    UR      
 Computing Diagnostic #    174  KPPghat      Counter:       1   Parms: SM P    LR      
 Computing Diagnostic #    175  KPPhbl       Counter:       1   Parms: SM P     1      
 Computing Diagnostic #    176  KPPfrac      Counter:       1   Parms: SM P     1      
 Computing Diagnostic #     71  MXLDEPTH     Counter:       1   Parms: SM      M1      
time,SST,SSS,fu,fv,Q,E-P,i0,i1,a,b =   4.6800E+04  0.0000E+00  0.0000E+00  0.0000E+00  0.0000E+00  0.0000E+00  0.0000E+00     1     2  5.8333E-01  4.1667E-01
time,fu0,fu1,fu =   4.6800E+04  0.0000E+00  0.0000E+00  0.0000E+00  5.833333333333334E-01  4.166666666666666E-01
 cg2d: Sum(rhs),rhsMax =  -1.33226762955019E-14  5.95120636538369E-01
(PID.TID 0000.0001)                    cg2d_init_res =    2.04263926914021E-01
(PID.TID 0000.0001)                       cg2d_iters =    47
(PID.TID 0000.0001)                         cg2d_res =    3.87124233887095E-14
(PID.TID 0000.0001) // =======================================================
(PID.TID 0000.0001) // Begin MONITOR dynamic field statistics
(PID.TID 0000.0001) // =======================================================
(PID.TID 0000.0001) %MON time_tsnumber                =                     8
(PID.TID 0000.0001) %MON time_secondsf                =   5.0400000000000E+04
(PID.TID 0000.0001) %MON dynstat_eta_max              =   1.6661262849046E-01
(PID.TID 0000.0001) %MON dynstat_eta_min              =  -2.5263098891439E-01
(PID.TID 0000.0001) %MON dynstat_eta_mean             =   8.2724517999773E-17
(PID.TID 0000.0001) %MON dynstat_eta_sd               =   8.6962279714708E-02
(PID.TID 0000.0001) %MON dynstat_eta_del2             =   4.6372045040961E-03
(PID.TID 0000.0001) %MON dynstat_uvel_max             =   1.1999241359180E-01
(PID.TID 0000.0001) %MON dynstat_uvel_min             =  -1.7210696678404E-01
(PID.TID 0000.0001) %MON dynstat_uvel_mean            =   5.6417273660430E-04
(PID.TID 0000.0001) %MON dynstat_uvel_sd              =   8.1838678586298E-03
(PID.TID 0000.0001) %MON dynstat_uvel_del2            =   2.9826048841449E-03
(PID.TID 0000.0001) %MON dynstat_vvel_max             =   5.2650076529081E-02
(PID.TID 0000.0001) %MON dynstat_vvel_min             =  -1.2589606411733E-01
(PID.TID 0000.0001) %MON dynstat_vvel_mean            =  -3.5936336782470E-05
(PID.TID 0000.0001) %MON dynstat_vvel_sd              =   7.1717379900061E-03
(PID.TID 0000.0001) %MON dynstat_vvel_del2            =   2.4432262289958E-03
(PID.TID 0000.0001) %MON dynstat_wvel_max             =   1.3861800406831E-04
(PID.TID 0000.0001) %MON dynstat_wvel_min             =  -1.6450229050700E-04
(PID.TID 0000.0001) %MON dynstat_wvel_mean            =   1.1254787192334E-22
(PID.TID 0000.0001) %MON dynstat_wvel_sd              =   3.6158443304124E-05
(PID.TID 0000.0001) %MON dynstat_wvel_del2            =   8.3086141862450E-06
(PID.TID 0000.0001) %MON dynstat_theta_max            =   2.6088410567720E+01
(PID.TID 0000.0001) %MON dynstat_theta_min            =   1.8064487745638E+00
(PID.TID 0000.0001) %MON dynstat_theta_mean           =   5.4785176703814E+00
(PID.TID 0000.0001) %MON dynstat_theta_sd             =   4.5927439339454E+00
(PID.TID 0000.0001) %MON dynstat_theta_del2           =   5.0707395979472E-02
(PID.TID 0000.0001) %MON dynstat_salt_max             =   3.7402020869843E+01
(PID.TID 0000.0001) %MON dynstat_salt_min             =   3.4726798732403E+01
(PID.TID 0000.0001) %MON dynstat_salt_mean            =   3.5157562897821E+01
(PID.TID 0000.0001) %MON dynstat_salt_sd              =   4.1378548105309E-01
(PID.TID 0000.0001) %MON dynstat_salt_del2            =   1.2629423707683E-02
(PID.TID 0000.0001) %MON extforcing_qnet_max          =   3.7984158833822E+01
(PID.TID 0000.0001) %MON extforcing_qnet_min          =  -1.6853647994995E+02
(PID.TID 0000.0001) %MON extforcing_qnet_mean         =  -7.9448248268458E+01
(PID.TID 0000.0001) %MON extforcing_qnet_sd           =   5.1687193850144E+01
(PID.TID 0000.0001) %MON extforcing_qnet_del2         =   8.0776038898036E+00
(PID.TID 0000.0001) %MON extforcing_qsw_max           =  -1.4661845270793E+02
(PID.TID 0000.0001) %MON extforcing_qsw_min           =  -3.1572941589355E+02
(PID.TID 0000.0001) %MON extforcing_qsw_mean          =  -2.4818399441075E+02
(PID.TID 0000.0001) %MON extforcing_qsw_sd            =   4.1931857501445E+01
(PID.TID 0000.0001) %MON extforcing_qsw_del2          =   5.9088638850621E+00
(PID.TID 0000.0001) %MON extforcing_empmr_max         =   6.6317653831878E-05
(PID.TID 0000.0001) %MON extforcing_empmr_min         =   1.3151340821323E-05
(PID.TID 0000.0001) %MON extforcing_empmr_mean        =   3.9467967369872E-05
(PID.TID 0000.0001) %MON extforcing_empmr_sd          =   1.1817053741946E-05
(PID.TID 0000.0001) %MON extforcing_empmr_del2        =   2.2562164364477E-06
(PID.TID 0000.0001) %MON advcfl_uvel_max              =   2.8847645847635E-03
(PID.TID 0000.0001) %MON advcfl_vvel_max              =   2.0382988439900E-03
(PID.TID 0000.0001) %MON advcfl_wvel_max              =   5.5721499524813E-03
(PID.TID 0000.0001) %MON advcfl_W_hf_max              =   6.1484936735039E-03
(PID.TID 0000.0001) %MON pe_b_mean                    =   9.1157822012219E-06
(PID.TID 0000.0001) %MON ke_max                       =   1.4776395124427E-02
(PID.TID 0000.0001) %MON ke_mean                      =   5.2893540899060E-05
(PID.TID 0000.0001) %MON ke_vol                       =   3.6027486600263E+16
(PID.TID 0000.0001) %MON vort_r_min                   =  -3.5030329518755E-07
(PID.TID 0000.0001) %MON vort_r_max                   =   7.4801541527548E-07
(PID.TID 0000.0001) %MON vort_a_mean                  =   6.2114138811197E-05
(PID.TID 0000.0001) %MON vort_a_sd                    =   1.9250774177279E-05
(PID.TID 0000.0001) %MON vort_p_mean                  =   7.8095197769435E-05
(PID.TID 0000.0001) %MON vort_p_sd                    =   5.6521831300119E-05
(PID.TID 0000.0001) %MON surfExpan_theta_mean         =  -1.9792264693789E-06
(PID.TID 0000.0001) %MON surfExpan_salt_mean          =  -4.8428365751612E-07
(PID.TID 0000.0001) // =======================================================
(PID.TID 0000.0001) // End MONITOR dynamic field statistics
(PID.TID 0000.0001) // =======================================================
time,SST,SSS,fu,fv,Q,E-P,i0,i1,a,b =   5.0400E+04  0.0000E+00  0.0000E+00  0.0000E+00  0.0000E+00  0.0000E+00  0.0000E+00     1     2  6.6667E-01  3.3333E-01
time,fu0,fu1,fu =   5.0400E+04  0.0000E+00  0.0000E+00  0.0000E+00  6.666666666666666E-01  3.333333333333334E-01
 cg2d: Sum(rhs),rhsMax =  -1.68753899743024E-14  5.78136604666044E-01
(PID.TID 0000.0001)                    cg2d_init_res =    1.56538698568065E-01
(PID.TID 0000.0001)                       cg2d_iters =    46
(PID.TID 0000.0001)                         cg2d_res =    6.16914534296910E-14
(PID.TID 0000.0001) // =======================================================
(PID.TID 0000.0001) // Begin MONITOR dynamic field statistics
(PID.TID 0000.0001) // =======================================================
(PID.TID 0000.0001) %MON time_tsnumber                =                     9
(PID.TID 0000.0001) %MON time_secondsf                =   5.4000000000000E+04
(PID.TID 0000.0001) %MON dynstat_eta_max              =   1.5761005301441E-01
(PID.TID 0000.0001) %MON dynstat_eta_min              =  -2.3631598901523E-01
(PID.TID 0000.0001) %MON dynstat_eta_mean             =   2.7574839333258E-17
(PID.TID 0000.0001) %MON dynstat_eta_sd               =   8.0258223736356E-02
(PID.TID 0000.0001) %MON dynstat_eta_del2             =   4.6114156303715E-03
(PID.TID 0000.0001) %MON dynstat_uvel_max             =   9.3794724568276E-02
(PID.TID 0000.0001) %MON dynstat_uvel_min             =  -1.8172514220910E-01
(PID.TID 0000.0001) %MON dynstat_uvel_mean            =   4.0603734921813E-04
(PID.TID 0000.0001) %MON dynstat_uvel_sd              =   8.7368473241793E-03
(PID.TID 0000.0001) %MON dynstat_uvel_del2            =   3.2443120471621E-03
(PID.TID 0000.0001) %MON dynstat_vvel_max             =   6.1687776937971E-02
(PID.TID 0000.0001) %MON dynstat_vvel_min             =  -1.2342036981688E-01
(PID.TID 0000.0001) %MON dynstat_vvel_mean            =   2.5707795147267E-04
(PID.TID 0000.0001) %MON dynstat_vvel_sd              =   7.2651587479465E-03
(PID.TID 0000.0001) %MON dynstat_vvel_del2            =   2.3192650267172E-03
(PID.TID 0000.0001) %MON dynstat_wvel_max             =   1.4541449430830E-04
(PID.TID 0000.0001) %MON dynstat_wvel_min             =  -1.6627708108945E-04
(PID.TID 0000.0001) %MON dynstat_wvel_mean            =  -5.6273935961672E-22
(PID.TID 0000.0001) %MON dynstat_wvel_sd              =   3.5299877462850E-05
(PID.TID 0000.0001) %MON dynstat_wvel_del2            =   7.7772573910614E-06
(PID.TID 0000.0001) %MON dynstat_theta_max            =   2.6095217966401E+01
(PID.TID 0000.0001) %MON dynstat_theta_min            =   1.8064509231545E+00
(PID.TID 0000.0001) %MON dynstat_theta_mean           =   5.4785378582096E+00
(PID.TID 0000.0001) %MON dynstat_theta_sd             =   4.5928117646131E+00
(PID.TID 0000.0001) %MON dynstat_theta_del2           =   5.0708187570609E-02
(PID.TID 0000.0001) %MON dynstat_salt_max             =   3.7402303653139E+01
(PID.TID 0000.0001) %MON dynstat_salt_min             =   3.4726799289411E+01
(PID.TID 0000.0001) %MON dynstat_salt_mean            =   3.5157564477971E+01
(PID.TID 0000.0001) %MON dynstat_salt_sd              =   4.1378954207569E-01
(PID.TID 0000.0001) %MON dynstat_salt_del2            =   1.2630635728403E-02
(PID.TID 0000.0001) %MON extforcing_qnet_max          =   4.0802118937174E+01
(PID.TID 0000.0001) %MON extforcing_qnet_min          =  -1.6719363403320E+02
(PID.TID 0000.0001) %MON extforcing_qnet_mean         =  -7.8480051020742E+01
(PID.TID 0000.0001) %MON extforcing_qnet_sd           =   5.1740364754944E+01
(PID.TID 0000.0001) %MON extforcing_qnet_del2         =   8.0758395891863E+00
(PID.TID 0000.0001) %MON extforcing_qsw_max           =  -1.4420261128743E+02
(PID.TID 0000.0001) %MON extforcing_qsw_min           =  -3.1632424926758E+02
(PID.TID 0000.0001) %MON extforcing_qsw_mean          =  -2.4846359410256E+02
(PID.TID 0000.0001) %MON extforcing_qsw_sd            =   4.2124756076541E+01
(PID.TID 0000.0001) %MON extforcing_qsw_del2          =   5.9065190207195E+00
(PID.TID 0000.0001) %MON extforcing_empmr_max         =   6.6790408281274E-05
(PID.TID 0000.0001) %MON extforcing_empmr_min         =   1.3301053239504E-05
(PID.TID 0000.0001) %MON extforcing_empmr_mean        =   3.9857326917978E-05
(PID.TID 0000.0001) %MON extforcing_empmr_sd          =   1.1815422392223E-05
(PID.TID 0000.0001) %MON extforcing_empmr_del2        =   2.2620901190917E-06
(PID.TID 0000.0001) %MON advcfl_uvel_max              =   3.0459792778974E-03
(PID.TID 0000.0001) %MON advcfl_vvel_max              =   1.9982165358889E-03
(PID.TID 0000.0001) %MON advcfl_wvel_max              =   5.3926170632599E-03
(PID.TID 0000.0001) %MON advcfl_W_hf_max              =   5.9055818916932E-03
(PID.TID 0000.0001) %MON pe_b_mean                    =   7.7644588973140E-06
(PID.TID 0000.0001) %MON ke_max                       =   1.6572393225494E-02
(PID.TID 0000.0001) %MON ke_mean                      =   5.7658454199430E-05
(PID.TID 0000.0001) %MON ke_vol                       =   3.6027486600263E+16
(PID.TID 0000.0001) %MON vort_r_min                   =  -3.6933169934041E-07
(PID.TID 0000.0001) %MON vort_r_max                   =   7.8676016757803E-07
(PID.TID 0000.0001) %MON vort_a_mean                  =   6.2114138811197E-05
(PID.TID 0000.0001) %MON vort_a_sd                    =   1.9250636804111E-05
(PID.TID 0000.0001) %MON vort_p_mean                  =   7.8095197769435E-05
(PID.TID 0000.0001) %MON vort_p_sd                    =   5.6521662905835E-05
(PID.TID 0000.0001) %MON surfExpan_theta_mean         =  -3.4304180908887E-06
(PID.TID 0000.0001) %MON surfExpan_salt_mean          =  -1.4335147861332E-07
(PID.TID 0000.0001) // =======================================================
(PID.TID 0000.0001) // End MONITOR dynamic field statistics
(PID.TID 0000.0001) // =======================================================
time,SST,SSS,fu,fv,Q,E-P,i0,i1,a,b =   5.4000E+04  0.0000E+00  0.0000E+00  0.0000E+00  0.0000E+00  0.0000E+00  0.0000E+00     1     2  7.5000E-01  2.5000E-01
time,fu0,fu1,fu =   5.4000E+04  0.0000E+00  0.0000E+00  0.0000E+00  7.500000000000000E-01  2.500000000000000E-01
 cg2d: Sum(rhs),rhsMax =  -8.88178419700125E-16  5.63425021365111E-01
(PID.TID 0000.0001)                    cg2d_init_res =    1.44927958686280E-01
(PID.TID 0000.0001)                       cg2d_iters =    46
(PID.TID 0000.0001)                         cg2d_res =    8.86739011932559E-14
(PID.TID 0000.0001) // =======================================================
(PID.TID 0000.0001) // Begin MONITOR dynamic field statistics
(PID.TID 0000.0001) // =======================================================
(PID.TID 0000.0001) %MON time_tsnumber                =                    10
(PID.TID 0000.0001) %MON time_secondsf                =   5.7600000000000E+04
(PID.TID 0000.0001) %MON dynstat_eta_max              =   1.5079536787280E-01
(PID.TID 0000.0001) %MON dynstat_eta_min              =  -2.2244304610022E-01
(PID.TID 0000.0001) %MON dynstat_eta_mean             =   2.2059871466606E-17
(PID.TID 0000.0001) %MON dynstat_eta_sd               =   7.4947406268892E-02
(PID.TID 0000.0001) %MON dynstat_eta_del2             =   4.5709674618958E-03
(PID.TID 0000.0001) %MON dynstat_uvel_max             =   6.8240580438206E-02
(PID.TID 0000.0001) %MON dynstat_uvel_min             =  -1.9151820508740E-01
(PID.TID 0000.0001) %MON dynstat_uvel_mean            =   2.2216478258597E-04
(PID.TID 0000.0001) %MON dynstat_uvel_sd              =   9.1609710414030E-03
(PID.TID 0000.0001) %MON dynstat_uvel_del2            =   3.4402768738965E-03
(PID.TID 0000.0001) %MON dynstat_vvel_max             =   6.8919282979751E-02
(PID.TID 0000.0001) %MON dynstat_vvel_min             =  -1.2562126799638E-01
(PID.TID 0000.0001) %MON dynstat_vvel_mean            =   4.1767170910743E-04
(PID.TID 0000.0001) %MON dynstat_vvel_sd              =   7.2788509211265E-03
(PID.TID 0000.0001) %MON dynstat_vvel_del2            =   2.1930481712460E-03
(PID.TID 0000.0001) %MON dynstat_wvel_max             =   1.4966129368773E-04
(PID.TID 0000.0001) %MON dynstat_wvel_min             =  -1.6297884673187E-04
(PID.TID 0000.0001) %MON dynstat_wvel_mean            =   1.0129308473101E-21
(PID.TID 0000.0001) %MON dynstat_wvel_sd              =   3.4229732707513E-05
(PID.TID 0000.0001) %MON dynstat_wvel_del2            =   7.2424412817536E-06
(PID.TID 0000.0001) %MON dynstat_theta_max            =   2.6102081414969E+01
(PID.TID 0000.0001) %MON dynstat_theta_min            =   1.8064529415193E+00
(PID.TID 0000.0001) %MON dynstat_theta_mean           =   5.4785586898482E+00
(PID.TID 0000.0001) %MON dynstat_theta_sd             =   4.5928821601397E+00
(PID.TID 0000.0001) %MON dynstat_theta_del2           =   5.0720116409362E-02
(PID.TID 0000.0001) %MON dynstat_salt_max             =   3.7402602568826E+01
(PID.TID 0000.0001) %MON dynstat_salt_min             =   3.4726800004436E+01
(PID.TID 0000.0001) %MON dynstat_salt_mean            =   3.5157565728504E+01
(PID.TID 0000.0001) %MON dynstat_salt_sd              =   4.1379271309339E-01
(PID.TID 0000.0001) %MON dynstat_salt_del2            =   1.2632472507307E-02
(PID.TID 0000.0001) %MON extforcing_qnet_max          =   4.3620079040527E+01
(PID.TID 0000.0001) %MON extforcing_qnet_min          =  -1.6585078811646E+02
(PID.TID 0000.0001) %MON extforcing_qnet_mean         =  -7.7511853773026E+01
(PID.TID 0000.0001) %MON extforcing_qnet_sd           =   5.1823890423082E+01
(PID.TID 0000.0001) %MON extforcing_qnet_del2         =   8.0811202937159E+00
(PID.TID 0000.0001) %MON extforcing_qsw_max           =  -1.4178676986694E+02
(PID.TID 0000.0001) %MON extforcing_qsw_min           =  -3.1691908264160E+02
(PID.TID 0000.0001) %MON extforcing_qsw_mean          =  -2.4874319379438E+02
(PID.TID 0000.0001) %MON extforcing_qsw_sd            =   4.2339446866167E+01
(PID.TID 0000.0001) %MON extforcing_qsw_del2          =   5.9116569951250E+00
(PID.TID 0000.0001) %MON extforcing_empmr_max         =   6.7263162730669E-05
(PID.TID 0000.0001) %MON extforcing_empmr_min         =   1.3450765657685E-05
(PID.TID 0000.0001) %MON extforcing_empmr_mean        =   4.0246686466085E-05
(PID.TID 0000.0001) %MON extforcing_empmr_sd          =   1.1824252951252E-05
(PID.TID 0000.0001) %MON extforcing_empmr_del2        =   2.2694266614559E-06
(PID.TID 0000.0001) %MON advcfl_uvel_max              =   3.2424213649588E-03
(PID.TID 0000.0001) %MON advcfl_vvel_max              =   2.0338498040650E-03
(PID.TID 0000.0001) %MON advcfl_wvel_max              =   4.8924330935469E-03
(PID.TID 0000.0001) %MON advcfl_W_hf_max              =   5.6502669506058E-03
(PID.TID 0000.0001) %MON pe_b_mean                    =   6.7708832147053E-06
(PID.TID 0000.0001) %MON ke_max                       =   1.8069815420269E-02
(PID.TID 0000.0001) %MON ke_mean                      =   6.1159482154582E-05
(PID.TID 0000.0001) %MON ke_vol                       =   3.6027486600263E+16
(PID.TID 0000.0001) %MON vort_r_min                   =  -3.7917854750137E-07
(PID.TID 0000.0001) %MON vort_r_max                   =   8.1588455544815E-07
(PID.TID 0000.0001) %MON vort_a_mean                  =   6.2114138811197E-05
(PID.TID 0000.0001) %MON vort_a_sd                    =   1.9250478391418E-05
(PID.TID 0000.0001) %MON vort_p_mean                  =   7.8095197769435E-05
(PID.TID 0000.0001) %MON vort_p_sd                    =   5.6521199069661E-05
(PID.TID 0000.0001) %MON surfExpan_theta_mean         =  -3.8498479891261E-06
(PID.TID 0000.0001) %MON surfExpan_salt_mean          =   1.3138562192447E-07
(PID.TID 0000.0001) // =======================================================
(PID.TID 0000.0001) // End MONITOR dynamic field statistics
(PID.TID 0000.0001) // =======================================================
time,SST,SSS,fu,fv,Q,E-P,i0,i1,a,b =   5.7600E+04  0.0000E+00  0.0000E+00  0.0000E+00  0.0000E+00  0.0000E+00  0.0000E+00     1     2  8.3333E-01  1.6667E-01
time,fu0,fu1,fu =   5.7600E+04  0.0000E+00  0.0000E+00  0.0000E+00  8.333333333333334E-01  1.666666666666666E-01
 cg2d: Sum(rhs),rhsMax =  -7.99360577730113E-15  5.52407172907092E-01
(PID.TID 0000.0001)                    cg2d_init_res =    1.38611645230987E-01
(PID.TID 0000.0001)                       cg2d_iters =    45
(PID.TID 0000.0001)                         cg2d_res =    6.94434605366823E-14
(PID.TID 0000.0001) // =======================================================
(PID.TID 0000.0001) // Begin MONITOR dynamic field statistics
(PID.TID 0000.0001) // =======================================================
(PID.TID 0000.0001) %MON time_tsnumber                =                    11
(PID.TID 0000.0001) %MON time_secondsf                =   6.1200000000000E+04
(PID.TID 0000.0001) %MON dynstat_eta_max              =   1.4685124352285E-01
(PID.TID 0000.0001) %MON dynstat_eta_min              =  -2.1248833553874E-01
(PID.TID 0000.0001) %MON dynstat_eta_mean             =   7.9967034066447E-17
(PID.TID 0000.0001) %MON dynstat_eta_sd               =   7.1835175220558E-02
(PID.TID 0000.0001) %MON dynstat_eta_del2             =   4.5437143766567E-03
(PID.TID 0000.0001) %MON dynstat_uvel_max             =   4.8539989702002E-02
(PID.TID 0000.0001) %MON dynstat_uvel_min             =  -2.0213059390045E-01
(PID.TID 0000.0001) %MON dynstat_uvel_mean            =   6.3523263077256E-05
(PID.TID 0000.0001) %MON dynstat_uvel_sd              =   9.4617173819660E-03
(PID.TID 0000.0001) %MON dynstat_uvel_del2            =   3.5536015126791E-03
(PID.TID 0000.0001) %MON dynstat_vvel_max             =   7.3966270385056E-02
(PID.TID 0000.0001) %MON dynstat_vvel_min             =  -1.3163164928007E-01
(PID.TID 0000.0001) %MON dynstat_vvel_mean            =   4.2554831905079E-04
(PID.TID 0000.0001) %MON dynstat_vvel_sd              =   7.2403019283488E-03
(PID.TID 0000.0001) %MON dynstat_vvel_del2            =   2.1251798978197E-03
(PID.TID 0000.0001) %MON dynstat_wvel_max             =   1.5135663154299E-04
(PID.TID 0000.0001) %MON dynstat_wvel_min             =  -1.5484740022415E-04
(PID.TID 0000.0001) %MON dynstat_wvel_mean            =   1.8007659507735E-21
(PID.TID 0000.0001) %MON dynstat_wvel_sd              =   3.3273653634126E-05
(PID.TID 0000.0001) %MON dynstat_wvel_del2            =   6.8460008091032E-06
(PID.TID 0000.0001) %MON dynstat_theta_max            =   2.6108935603761E+01
(PID.TID 0000.0001) %MON dynstat_theta_min            =   1.8064548519487E+00
(PID.TID 0000.0001) %MON dynstat_theta_mean           =   5.4785791339414E+00
(PID.TID 0000.0001) %MON dynstat_theta_sd             =   4.5929512531516E+00
(PID.TID 0000.0001) %MON dynstat_theta_del2           =   5.0744324174147E-02
(PID.TID 0000.0001) %MON dynstat_salt_max             =   3.7402919805113E+01
(PID.TID 0000.0001) %MON dynstat_salt_min             =   3.4726801210706E+01
(PID.TID 0000.0001) %MON dynstat_salt_mean            =   3.5157566781653E+01
(PID.TID 0000.0001) %MON dynstat_salt_sd              =   4.1379529819175E-01
(PID.TID 0000.0001) %MON dynstat_salt_del2            =   1.2634916048968E-02
(PID.TID 0000.0001) %MON extforcing_qnet_max          =   4.6438039143880E+01
(PID.TID 0000.0001) %MON extforcing_qnet_min          =  -1.6450794219971E+02
(PID.TID 0000.0001) %MON extforcing_qnet_mean         =  -7.6543656525311E+01
(PID.TID 0000.0001) %MON extforcing_qnet_sd           =   5.1937624405908E+01
(PID.TID 0000.0001) %MON extforcing_qnet_del2         =   8.0963423248191E+00
(PID.TID 0000.0001) %MON extforcing_qsw_max           =  -1.3937092844645E+02
(PID.TID 0000.0001) %MON extforcing_qsw_min           =  -3.1751391601562E+02
(PID.TID 0000.0001) %MON extforcing_qsw_mean          =  -2.4902279348619E+02
(PID.TID 0000.0001) %MON extforcing_qsw_sd            =   4.2575600204769E+01
(PID.TID 0000.0001) %MON extforcing_qsw_del2          =   5.9252104109340E+00
(PID.TID 0000.0001) %MON extforcing_empmr_max         =   6.7735917180064E-05
(PID.TID 0000.0001) %MON extforcing_empmr_min         =   1.3600478075867E-05
(PID.TID 0000.0001) %MON extforcing_empmr_mean        =   4.0636046014191E-05
(PID.TID 0000.0001) %MON extforcing_empmr_sd          =   1.1843522017782E-05
(PID.TID 0000.0001) %MON extforcing_empmr_del2        =   2.2805237595540E-06
(PID.TID 0000.0001) %MON advcfl_uvel_max              =   3.4220901134467E-03
(PID.TID 0000.0001) %MON advcfl_vvel_max              =   2.1311598614395E-03
(PID.TID 0000.0001) %MON advcfl_wvel_max              =   4.4887172548051E-03
(PID.TID 0000.0001) %MON advcfl_W_hf_max              =   5.6108965685063E-03
(PID.TID 0000.0001) %MON pe_b_mean                    =   6.2202296434061E-06
(PID.TID 0000.0001) %MON ke_max                       =   1.9350797332959E-02
(PID.TID 0000.0001) %MON ke_mean                      =   6.3417988231530E-05
(PID.TID 0000.0001) %MON ke_vol                       =   3.6027486600263E+16
(PID.TID 0000.0001) %MON vort_r_min                   =  -3.7949874986300E-07
(PID.TID 0000.0001) %MON vort_r_max                   =   8.3315939276756E-07
(PID.TID 0000.0001) %MON vort_a_mean                  =   6.2114138811197E-05
(PID.TID 0000.0001) %MON vort_a_sd                    =   1.9250341937889E-05
(PID.TID 0000.0001) %MON vort_p_mean                  =   7.8095197769435E-05
(PID.TID 0000.0001) %MON vort_p_sd                    =   5.6520604227960E-05
(PID.TID 0000.0001) %MON surfExpan_theta_mean         =  -3.2935539851782E-06
(PID.TID 0000.0001) %MON surfExpan_salt_mean          =   2.6807277696329E-07
(PID.TID 0000.0001) // =======================================================
(PID.TID 0000.0001) // End MONITOR dynamic field statistics
(PID.TID 0000.0001) // =======================================================
time,SST,SSS,fu,fv,Q,E-P,i0,i1,a,b =   6.1200E+04  0.0000E+00  0.0000E+00  0.0000E+00  0.0000E+00  0.0000E+00  0.0000E+00     1     2  9.1667E-01  8.3333E-02
time,fu0,fu1,fu =   6.1200E+04  0.0000E+00  0.0000E+00  0.0000E+00  9.166666666666666E-01  8.333333333333337E-02
 cg2d: Sum(rhs),rhsMax =  -1.33226762955019E-14  5.45429702006352E-01
(PID.TID 0000.0001)                    cg2d_init_res =    1.16924774579097E-01
(PID.TID 0000.0001)                       cg2d_iters =    45
(PID.TID 0000.0001)                         cg2d_res =    7.02978572746199E-14
(PID.TID 0000.0001) // =======================================================
(PID.TID 0000.0001) // Begin MONITOR dynamic field statistics
(PID.TID 0000.0001) // =======================================================
(PID.TID 0000.0001) %MON time_tsnumber                =                    12
(PID.TID 0000.0001) %MON time_secondsf                =   6.4800000000000E+04
(PID.TID 0000.0001) %MON dynstat_eta_max              =   1.4568849304098E-01
(PID.TID 0000.0001) %MON dynstat_eta_min              =  -2.0697065224823E-01
(PID.TID 0000.0001) %MON dynstat_eta_mean             =   4.4119742933212E-17
(PID.TID 0000.0001) %MON dynstat_eta_sd               =   7.0960225545020E-02
(PID.TID 0000.0001) %MON dynstat_eta_del2             =   4.5392465509439E-03
(PID.TID 0000.0001) %MON dynstat_uvel_max             =   4.6004214646582E-02
(PID.TID 0000.0001) %MON dynstat_uvel_min             =  -2.0980203645559E-01
(PID.TID 0000.0001) %MON dynstat_uvel_mean            =  -5.0870584453645E-05
(PID.TID 0000.0001) %MON dynstat_uvel_sd              =   9.6476106825904E-03
(PID.TID 0000.0001) %MON dynstat_uvel_del2            =   3.5746234334231E-03
(PID.TID 0000.0001) %MON dynstat_vvel_max             =   7.6687261568331E-02
(PID.TID 0000.0001) %MON dynstat_vvel_min             =  -1.3618699184876E-01
(PID.TID 0000.0001) %MON dynstat_vvel_mean            =   3.1391082193809E-04
(PID.TID 0000.0001) %MON dynstat_vvel_sd              =   7.1660389807891E-03
(PID.TID 0000.0001) %MON dynstat_vvel_del2            =   2.1398706468469E-03
(PID.TID 0000.0001) %MON dynstat_wvel_max             =   1.5047823265067E-04
(PID.TID 0000.0001) %MON dynstat_wvel_min             =  -1.5146658139124E-04
(PID.TID 0000.0001) %MON dynstat_wvel_mean            =  -1.8007659507735E-21
(PID.TID 0000.0001) %MON dynstat_wvel_sd              =   3.2591585820523E-05
(PID.TID 0000.0001) %MON dynstat_wvel_del2            =   6.7223298925861E-06
(PID.TID 0000.0001) %MON dynstat_theta_max            =   2.6115713684716E+01
(PID.TID 0000.0001) %MON dynstat_theta_min            =   1.8064567040453E+00
(PID.TID 0000.0001) %MON dynstat_theta_mean           =   5.4785983569517E+00
(PID.TID 0000.0001) %MON dynstat_theta_sd             =   4.5930158790582E+00
(PID.TID 0000.0001) %MON dynstat_theta_del2           =   5.0780848381447E-02
(PID.TID 0000.0001) %MON dynstat_salt_max             =   3.7403255123878E+01
(PID.TID 0000.0001) %MON dynstat_salt_min             =   3.4726803208826E+01
(PID.TID 0000.0001) %MON dynstat_salt_mean            =   3.5157567797757E+01
(PID.TID 0000.0001) %MON dynstat_salt_sd              =   4.1379771354911E-01
(PID.TID 0000.0001) %MON dynstat_salt_del2            =   1.2638755953859E-02
(PID.TID 0000.0001) %MON extforcing_qnet_max          =   4.9255999247233E+01
(PID.TID 0000.0001) %MON extforcing_qnet_min          =  -1.6316509628296E+02
(PID.TID 0000.0001) %MON extforcing_qnet_mean         =  -7.5575459277595E+01
(PID.TID 0000.0001) %MON extforcing_qnet_sd           =   5.2081368799327E+01
(PID.TID 0000.0001) %MON extforcing_qnet_del2         =   8.1172915977015E+00
(PID.TID 0000.0001) %MON extforcing_qsw_max           =  -1.3695508702596E+02
(PID.TID 0000.0001) %MON extforcing_qsw_min           =  -3.1810874938965E+02
(PID.TID 0000.0001) %MON extforcing_qsw_mean          =  -2.4930239317800E+02
(PID.TID 0000.0001) %MON extforcing_qsw_sd            =   4.2832861101004E+01
(PID.TID 0000.0001) %MON extforcing_qsw_del2          =   5.9467413202295E+00
(PID.TID 0000.0001) %MON extforcing_empmr_max         =   6.8208671629459E-05
(PID.TID 0000.0001) %MON extforcing_empmr_min         =   1.3750190494048E-05
(PID.TID 0000.0001) %MON extforcing_empmr_mean        =   4.1025405562298E-05
(PID.TID 0000.0001) %MON extforcing_empmr_sd          =   1.1873178769737E-05
(PID.TID 0000.0001) %MON extforcing_empmr_del2        =   2.2928655708299E-06
(PID.TID 0000.0001) %MON advcfl_uvel_max              =   3.5519683630339E-03
(PID.TID 0000.0001) %MON advcfl_vvel_max              =   2.2049123616216E-03
(PID.TID 0000.0001) %MON advcfl_wvel_max              =   4.3427683202617E-03
(PID.TID 0000.0001) %MON advcfl_W_hf_max              =   5.4284604003271E-03
(PID.TID 0000.0001) %MON pe_b_mean                    =   6.0696281072143E-06
(PID.TID 0000.0001) %MON ke_max                       =   2.1270524750336E-02
(PID.TID 0000.0001) %MON ke_mean                      =   6.4510641725403E-05
(PID.TID 0000.0001) %MON ke_vol                       =   3.6027486600263E+16
(PID.TID 0000.0001) %MON vort_r_min                   =  -3.8592776617516E-07
(PID.TID 0000.0001) %MON vort_r_max                   =   8.3532796192759E-07
(PID.TID 0000.0001) %MON vort_a_mean                  =   6.2114138811197E-05
(PID.TID 0000.0001) %MON vort_a_sd                    =   1.9250243180173E-05
(PID.TID 0000.0001) %MON vort_p_mean                  =   7.8095197769435E-05
(PID.TID 0000.0001) %MON vort_p_sd                    =   5.6520029439938E-05
(PID.TID 0000.0001) %MON surfExpan_theta_mean         =  -2.0735154708053E-06
(PID.TID 0000.0001) %MON surfExpan_salt_mean          =   2.6799843999485E-07
(PID.TID 0000.0001) // =======================================================
(PID.TID 0000.0001) // End MONITOR dynamic field statistics
(PID.TID 0000.0001) // =======================================================
S/R EXTERNAL_FIELDS_LOAD: Reading new data:    2    3        12  6.480000000000E+04
(PID.TID 0000.0001)  MDS_READ_FIELD: opening global file: kf_tx
(PID.TID 0000.0001)  MDS_READ_FIELD: opening global file: kf_tx
(PID.TID 0000.0001)  MDS_READ_FIELD: opening global file: kf_ty
(PID.TID 0000.0001)  MDS_READ_FIELD: opening global file: kf_ty
(PID.TID 0000.0001)  MDS_READ_FIELD: opening global file: kf_qnet
(PID.TID 0000.0001)  MDS_READ_FIELD: opening global file: kf_qnet
(PID.TID 0000.0001)  MDS_READ_FIELD: opening global file: kf_empmr
(PID.TID 0000.0001)  MDS_READ_FIELD: opening global file: kf_empmr
(PID.TID 0000.0001)  MDS_READ_FIELD: opening global file: kf_sst
(PID.TID 0000.0001)  MDS_READ_FIELD: opening global file: kf_sst
(PID.TID 0000.0001)  MDS_READ_FIELD: opening global file: kf_sss
(PID.TID 0000.0001)  MDS_READ_FIELD: opening global file: kf_sss
(PID.TID 0000.0001)  MDS_READ_FIELD: opening global file: kf_sw
(PID.TID 0000.0001)  MDS_READ_FIELD: opening global file: kf_sw
time,SST,SSS,fu,fv,Q,E-P,i0,i1,a,b =   6.4800E+04  0.0000E+00  0.0000E+00  0.0000E+00  0.0000E+00  0.0000E+00  0.0000E+00     2     3  0.0000E+00  1.0000E+00
time,fu0,fu1,fu =   6.4800E+04  0.0000E+00  0.0000E+00  0.0000E+00  0.000000000000000E+00  1.000000000000000E+00
 cg2d: Sum(rhs),rhsMax =  -1.06581410364015E-14  5.42218706299922E-01
(PID.TID 0000.0001)                    cg2d_init_res =    9.05037906785943E-02
(PID.TID 0000.0001)                       cg2d_iters =    45
(PID.TID 0000.0001)                         cg2d_res =    9.13997950381495E-14
(PID.TID 0000.0001) // =======================================================
(PID.TID 0000.0001) // Begin MONITOR dynamic field statistics
(PID.TID 0000.0001) // =======================================================
(PID.TID 0000.0001) %MON time_tsnumber                =                    13
(PID.TID 0000.0001) %MON time_secondsf                =   6.8400000000000E+04
(PID.TID 0000.0001) %MON dynstat_eta_max              =   1.4665267705307E-01
(PID.TID 0000.0001) %MON dynstat_eta_min              =  -2.0568809327435E-01
(PID.TID 0000.0001) %MON dynstat_eta_mean             =   6.0664646533167E-17
(PID.TID 0000.0001) %MON dynstat_eta_sd               =   7.1687538586638E-02
(PID.TID 0000.0001) %MON dynstat_eta_del2             =   4.5550603718556E-03
(PID.TID 0000.0001) %MON dynstat_uvel_max             =   4.5407207938086E-02
(PID.TID 0000.0001) %MON dynstat_uvel_min             =  -2.1321686948993E-01
(PID.TID 0000.0001) %MON dynstat_uvel_mean            =  -1.2066770940798E-04
(PID.TID 0000.0001) %MON dynstat_uvel_sd              =   9.7247348659409E-03
(PID.TID 0000.0001) %MON dynstat_uvel_del2            =   3.5039923649098E-03
(PID.TID 0000.0001) %MON dynstat_vvel_max             =   7.7446225164516E-02
(PID.TID 0000.0001) %MON dynstat_vvel_min             =  -1.3914728753606E-01
(PID.TID 0000.0001) %MON dynstat_vvel_mean            =   1.4534623956526E-04
(PID.TID 0000.0001) %MON dynstat_vvel_sd              =   7.0612344120012E-03
(PID.TID 0000.0001) %MON dynstat_vvel_del2            =   2.2236056432869E-03
(PID.TID 0000.0001) %MON dynstat_wvel_max             =   1.4700243105187E-04
(PID.TID 0000.0001) %MON dynstat_wvel_min             =  -1.5883463818990E-04
(PID.TID 0000.0001) %MON dynstat_wvel_mean            =   0.0000000000000E+00
(PID.TID 0000.0001) %MON dynstat_wvel_sd              =   3.2133170416501E-05
(PID.TID 0000.0001) %MON dynstat_wvel_del2            =   6.8089232486081E-06
(PID.TID 0000.0001) %MON dynstat_theta_max            =   2.6122371359298E+01
(PID.TID 0000.0001) %MON dynstat_theta_min            =   1.8064585600241E+00
(PID.TID 0000.0001) %MON dynstat_theta_mean           =   5.4786159373022E+00
(PID.TID 0000.0001) %MON dynstat_theta_sd             =   4.5930744134117E+00
(PID.TID 0000.0001) %MON dynstat_theta_del2           =   5.0831156781155E-02
(PID.TID 0000.0001) %MON dynstat_salt_max             =   3.7403605741713E+01
(PID.TID 0000.0001) %MON dynstat_salt_min             =   3.4726806193750E+01
(PID.TID 0000.0001) %MON dynstat_salt_mean            =   3.5157568897248E+01
(PID.TID 0000.0001) %MON dynstat_salt_sd              =   4.1380029477759E-01
(PID.TID 0000.0001) %MON dynstat_salt_del2            =   1.2642073023928E-02
(PID.TID 0000.0001) %MON extforcing_qnet_max          =   5.2073959350586E+01
(PID.TID 0000.0001) %MON extforcing_qnet_min          =  -1.6258977508545E+02
(PID.TID 0000.0001) %MON extforcing_qnet_mean         =  -7.4607262029879E+01
(PID.TID 0000.0001) %MON extforcing_qnet_sd           =   5.2254875943117E+01
(PID.TID 0000.0001) %MON extforcing_qnet_del2         =   8.1457465787239E+00
(PID.TID 0000.0001) %MON extforcing_qsw_max           =  -1.3453924560547E+02
(PID.TID 0000.0001) %MON extforcing_qsw_min           =  -3.1870358276367E+02
(PID.TID 0000.0001) %MON extforcing_qsw_mean          =  -2.4958199286982E+02
(PID.TID 0000.0001) %MON extforcing_qsw_sd            =   4.3110851683050E+01
(PID.TID 0000.0001) %MON extforcing_qsw_del2          =   5.9705705689679E+00
(PID.TID 0000.0001) %MON extforcing_empmr_max         =   6.8681426078854E-05
(PID.TID 0000.0001) %MON extforcing_empmr_min         =   1.3899902912229E-05
(PID.TID 0000.0001) %MON extforcing_empmr_mean        =   4.1414765110404E-05
(PID.TID 0000.0001) %MON extforcing_empmr_sd          =   1.1913145629620E-05
(PID.TID 0000.0001) %MON extforcing_empmr_del2        =   2.3063705960589E-06
(PID.TID 0000.0001) %MON advcfl_uvel_max              =   3.6097818099763E-03
(PID.TID 0000.0001) %MON advcfl_vvel_max              =   2.2528405261722E-03
(PID.TID 0000.0001) %MON advcfl_wvel_max              =   4.1515060011549E-03
(PID.TID 0000.0001) %MON advcfl_W_hf_max              =   5.1893825014436E-03
(PID.TID 0000.0001) %MON pe_b_mean                    =   6.1946881150979E-06
(PID.TID 0000.0001) %MON ke_max                       =   2.2830029576626E-02
(PID.TID 0000.0001) %MON ke_mean                      =   6.4499810775206E-05
(PID.TID 0000.0001) %MON ke_vol                       =   3.6027486600263E+16
(PID.TID 0000.0001) %MON vort_r_min                   =  -3.9169098008781E-07
(PID.TID 0000.0001) %MON vort_r_max                   =   8.2756460338016E-07
(PID.TID 0000.0001) %MON vort_a_mean                  =   6.2114138811197E-05
(PID.TID 0000.0001) %MON vort_a_sd                    =   1.9250182003825E-05
(PID.TID 0000.0001) %MON vort_p_mean                  =   7.8095197769435E-05
(PID.TID 0000.0001) %MON vort_p_sd                    =   5.6519600020170E-05
(PID.TID 0000.0001) %MON surfExpan_theta_mean         =  -6.3562627607315E-07
(PID.TID 0000.0001) %MON surfExpan_salt_mean          =   1.8007724730606E-07
(PID.TID 0000.0001) // =======================================================
(PID.TID 0000.0001) // End MONITOR dynamic field statistics
(PID.TID 0000.0001) // =======================================================
time,SST,SSS,fu,fv,Q,E-P,i0,i1,a,b =   6.8400E+04  0.0000E+00  0.0000E+00  0.0000E+00  0.0000E+00  0.0000E+00  0.0000E+00     2     3  8.3333E-02  9.1667E-01
time,fu0,fu1,fu =   6.8400E+04  0.0000E+00  0.0000E+00  0.0000E+00  8.333333333333333E-02  9.166666666666666E-01
 cg2d: Sum(rhs),rhsMax =  -1.15463194561016E-14  5.42031714848484E-01
(PID.TID 0000.0001)                    cg2d_init_res =    7.98406293921459E-02
(PID.TID 0000.0001)                       cg2d_iters =    45
(PID.TID 0000.0001)                         cg2d_res =    9.24328270537272E-14
(PID.TID 0000.0001) // =======================================================
(PID.TID 0000.0001) // Begin MONITOR dynamic field statistics
(PID.TID 0000.0001) // =======================================================
(PID.TID 0000.0001) %MON time_tsnumber                =                    14
(PID.TID 0000.0001) %MON time_secondsf                =   7.2000000000000E+04
(PID.TID 0000.0001) %MON dynstat_eta_max              =   1.4881760330294E-01
(PID.TID 0000.0001) %MON dynstat_eta_min              =  -2.0779897682787E-01
(PID.TID 0000.0001) %MON dynstat_eta_mean             =   7.9967034066447E-17
(PID.TID 0000.0001) %MON dynstat_eta_sd               =   7.3268592313479E-02
(PID.TID 0000.0001) %MON dynstat_eta_del2             =   4.5763157946228E-03
(PID.TID 0000.0001) %MON dynstat_uvel_max             =   4.3247918321556E-02
(PID.TID 0000.0001) %MON dynstat_uvel_min             =  -2.1453667965699E-01
(PID.TID 0000.0001) %MON dynstat_uvel_mean            =  -1.5328072948664E-04
(PID.TID 0000.0001) %MON dynstat_uvel_sd              =   9.7050623831761E-03
(PID.TID 0000.0001) %MON dynstat_uvel_del2            =   3.3466829771097E-03
(PID.TID 0000.0001) %MON dynstat_vvel_max             =   8.0996209356087E-02
(PID.TID 0000.0001) %MON dynstat_vvel_min             =  -1.4030111278115E-01
(PID.TID 0000.0001) %MON dynstat_vvel_mean            =  -1.6645117668293E-05
(PID.TID 0000.0001) %MON dynstat_vvel_sd              =   6.9245276847158E-03
(PID.TID 0000.0001) %MON dynstat_vvel_del2            =   2.3461565678089E-03
(PID.TID 0000.0001) %MON dynstat_wvel_max             =   1.4097147597281E-04
(PID.TID 0000.0001) %MON dynstat_wvel_min             =  -1.6471839964874E-04
(PID.TID 0000.0001) %MON dynstat_wvel_mean            =  -2.2509574384669E-22
(PID.TID 0000.0001) %MON dynstat_wvel_sd              =   3.1687004312307E-05
(PID.TID 0000.0001) %MON dynstat_wvel_del2            =   6.9601710305974E-06
(PID.TID 0000.0001) %MON dynstat_theta_max            =   2.6128825896854E+01
(PID.TID 0000.0001) %MON dynstat_theta_min            =   1.8064604851604E+00
(PID.TID 0000.0001) %MON dynstat_theta_mean           =   5.4786319235170E+00
(PID.TID 0000.0001) %MON dynstat_theta_sd             =   4.5931270639769E+00
(PID.TID 0000.0001) %MON dynstat_theta_del2           =   5.0896462337999E-02
(PID.TID 0000.0001) %MON dynstat_salt_max             =   3.7403968302618E+01
(PID.TID 0000.0001) %MON dynstat_salt_min             =   3.4726810210446E+01
(PID.TID 0000.0001) %MON dynstat_salt_mean            =   3.5157570133586E+01
(PID.TID 0000.0001) %MON dynstat_salt_sd              =   4.1380320671486E-01
(PID.TID 0000.0001) %MON dynstat_salt_del2            =   1.2644831103596E-02
(PID.TID 0000.0001) %MON extforcing_qnet_max          =   5.1977971394857E+01
(PID.TID 0000.0001) %MON extforcing_qnet_min          =  -1.6385988362630E+02
(PID.TID 0000.0001) %MON extforcing_qnet_mean         =  -7.3651586729899E+01
(PID.TID 0000.0001) %MON extforcing_qnet_sd           =   5.1704387965704E+01
(PID.TID 0000.0001) %MON extforcing_qnet_del2         =   8.0395881186174E+00
(PID.TID 0000.0001) %MON extforcing_qsw_max           =  -1.3404340108236E+02
(PID.TID 0000.0001) %MON extforcing_qsw_min           =  -3.1842380015055E+02
(PID.TID 0000.0001) %MON extforcing_qsw_mean          =  -2.5003001626694E+02
(PID.TID 0000.0001) %MON extforcing_qsw_sd            =   4.2766618166345E+01
(PID.TID 0000.0001) %MON extforcing_qsw_del2          =   5.8008702815264E+00
(PID.TID 0000.0001) %MON extforcing_empmr_max         =   6.8503168801470E-05
(PID.TID 0000.0001) %MON extforcing_empmr_min         =   1.3984636391040E-05
(PID.TID 0000.0001) %MON extforcing_empmr_mean        =   4.1836037621644E-05
(PID.TID 0000.0001) %MON extforcing_empmr_sd          =   1.1816049545074E-05
(PID.TID 0000.0001) %MON extforcing_empmr_del2        =   2.2987105901136E-06
(PID.TID 0000.0001) %MON advcfl_uvel_max              =   3.6287194296303E-03
(PID.TID 0000.0001) %MON advcfl_vvel_max              =   2.2715213378380E-03
(PID.TID 0000.0001) %MON advcfl_wvel_max              =   3.9698157749542E-03
(PID.TID 0000.0001) %MON advcfl_W_hf_max              =   4.9622697186928E-03
(PID.TID 0000.0001) %MON pe_b_mean                    =   6.4709464084254E-06
(PID.TID 0000.0001) %MON ke_max                       =   2.3943270114666E-02
(PID.TID 0000.0001) %MON ke_mean                      =   6.3482742978025E-05
(PID.TID 0000.0001) %MON ke_vol                       =   3.6027486600263E+16
(PID.TID 0000.0001) %MON vort_r_min                   =  -4.4841330762606E-07
(PID.TID 0000.0001) %MON vort_r_max                   =   8.1522084117914E-07
(PID.TID 0000.0001) %MON vort_a_mean                  =   6.2114138811197E-05
(PID.TID 0000.0001) %MON vort_a_sd                    =   1.9250151710669E-05
(PID.TID 0000.0001) %MON vort_p_mean                  =   7.8095197769435E-05
(PID.TID 0000.0001) %MON vort_p_sd                    =   5.6519400729333E-05
(PID.TID 0000.0001) %MON surfExpan_theta_mean         =   6.0204471647773E-07
(PID.TID 0000.0001) %MON surfExpan_salt_mean          =   6.5618820837299E-08
(PID.TID 0000.0001) // =======================================================
(PID.TID 0000.0001) // End MONITOR dynamic field statistics
(PID.TID 0000.0001) // =======================================================
time,SST,SSS,fu,fv,Q,E-P,i0,i1,a,b =   7.2000E+04  0.0000E+00  0.0000E+00  0.0000E+00  0.0000E+00  0.0000E+00  0.0000E+00     2     3  1.6667E-01  8.3333E-01
time,fu0,fu1,fu =   7.2000E+04  0.0000E+00  0.0000E+00  0.0000E+00  1.666666666666667E-01  8.333333333333334E-01
 cg2d: Sum(rhs),rhsMax =  -1.77635683940025E-14  5.43934367589419E-01
(PID.TID 0000.0001)                    cg2d_init_res =    8.31176844068775E-02
(PID.TID 0000.0001)                       cg2d_iters =    45
(PID.TID 0000.0001)                         cg2d_res =    6.77939042040842E-14
(PID.TID 0000.0001) // =======================================================
(PID.TID 0000.0001) // Begin MONITOR dynamic field statistics
(PID.TID 0000.0001) // =======================================================
(PID.TID 0000.0001) %MON time_tsnumber                =                    15
(PID.TID 0000.0001) %MON time_secondsf                =   7.5600000000000E+04
(PID.TID 0000.0001) %MON dynstat_eta_max              =   1.5122343201670E-01
(PID.TID 0000.0001) %MON dynstat_eta_min              =  -2.1214751865719E-01
(PID.TID 0000.0001) %MON dynstat_eta_mean             =   7.1694582266470E-17
(PID.TID 0000.0001) %MON dynstat_eta_sd               =   7.5135907534276E-02
(PID.TID 0000.0001) %MON dynstat_eta_del2             =   4.6054754703285E-03
(PID.TID 0000.0001) %MON dynstat_uvel_max             =   3.9717955562844E-02
(PID.TID 0000.0001) %MON dynstat_uvel_min             =  -2.1849379214805E-01
(PID.TID 0000.0001) %MON dynstat_uvel_mean            =  -1.5629545722339E-04
(PID.TID 0000.0001) %MON dynstat_uvel_sd              =   9.5952392438654E-03
(PID.TID 0000.0001) %MON dynstat_uvel_del2            =   3.1260444214699E-03
(PID.TID 0000.0001) %MON dynstat_vvel_max             =   8.3914872193121E-02
(PID.TID 0000.0001) %MON dynstat_vvel_min             =  -1.3943527520974E-01
(PID.TID 0000.0001) %MON dynstat_vvel_mean            =  -1.2696772390010E-04
(PID.TID 0000.0001) %MON dynstat_vvel_sd              =   6.7532347104594E-03
(PID.TID 0000.0001) %MON dynstat_vvel_del2            =   2.4345088128886E-03
(PID.TID 0000.0001) %MON dynstat_wvel_max             =   1.3249368705920E-04
(PID.TID 0000.0001) %MON dynstat_wvel_min             =  -1.6911488661754E-04
(PID.TID 0000.0001) %MON dynstat_wvel_mean            =  -6.7528723154006E-22
(PID.TID 0000.0001) %MON dynstat_wvel_sd              =   3.1003829289446E-05
(PID.TID 0000.0001) %MON dynstat_wvel_del2            =   6.9527076535454E-06
(PID.TID 0000.0001) %MON dynstat_theta_max            =   2.6135115985911E+01
(PID.TID 0000.0001) %MON dynstat_theta_min            =   1.8064625449014E+00
(PID.TID 0000.0001) %MON dynstat_theta_mean           =   5.4786467131957E+00
(PID.TID 0000.0001) %MON dynstat_theta_sd             =   4.5931752860143E+00
(PID.TID 0000.0001) %MON dynstat_theta_del2           =   5.0970296874083E-02
(PID.TID 0000.0001) %MON dynstat_salt_max             =   3.7404335334688E+01
(PID.TID 0000.0001) %MON dynstat_salt_min             =   3.4726815125807E+01
(PID.TID 0000.0001) %MON dynstat_salt_mean            =   3.5157571497188E+01
(PID.TID 0000.0001) %MON dynstat_salt_sd              =   4.1380644860241E-01
(PID.TID 0000.0001) %MON dynstat_salt_del2            =   1.2646844234477E-02
(PID.TID 0000.0001) %MON extforcing_qnet_max          =   5.1881983439128E+01
(PID.TID 0000.0001) %MON extforcing_qnet_min          =  -1.6512999216715E+02
(PID.TID 0000.0001) %MON extforcing_qnet_mean         =  -7.2695911429919E+01
(PID.TID 0000.0001) %MON extforcing_qnet_sd           =   5.1206831276043E+01
(PID.TID 0000.0001) %MON extforcing_qnet_del2         =   7.9459580138008E+00
(PID.TID 0000.0001) %MON extforcing_qsw_max           =  -1.3354755655924E+02
(PID.TID 0000.0001) %MON extforcing_qsw_min           =  -3.1814401753743E+02
(PID.TID 0000.0001) %MON extforcing_qsw_mean          =  -2.5047803966406E+02
(PID.TID 0000.0001) %MON extforcing_qsw_sd            =   4.2471564939527E+01
(PID.TID 0000.0001) %MON extforcing_qsw_del2          =   5.6487943276592E+00
(PID.TID 0000.0001) %MON extforcing_empmr_max         =   6.8324911524087E-05
(PID.TID 0000.0001) %MON extforcing_empmr_min         =   1.4069369869851E-05
(PID.TID 0000.0001) %MON extforcing_empmr_mean        =   4.2257310132885E-05
(PID.TID 0000.0001) %MON extforcing_empmr_sd          =   1.1736454149462E-05
(PID.TID 0000.0001) %MON extforcing_empmr_del2        =   2.2961946400204E-06
(PID.TID 0000.0001) %MON advcfl_uvel_max              =   3.6754681406193E-03
(PID.TID 0000.0001) %MON advcfl_vvel_max              =   2.2575031416913E-03
(PID.TID 0000.0001) %MON advcfl_wvel_max              =   4.1685799381262E-03
(PID.TID 0000.0001) %MON advcfl_W_hf_max              =   5.2107249226577E-03
(PID.TID 0000.0001) %MON pe_b_mean                    =   6.8049851313033E-06
(PID.TID 0000.0001) %MON ke_max                       =   2.4784461527732E-02
(PID.TID 0000.0001) %MON ke_mean                      =   6.1506593721422E-05
(PID.TID 0000.0001) %MON ke_vol                       =   3.6027486600263E+16
(PID.TID 0000.0001) %MON vort_r_min                   =  -4.8497961291922E-07
(PID.TID 0000.0001) %MON vort_r_max                   =   8.0035889138763E-07
(PID.TID 0000.0001) %MON vort_a_mean                  =   6.2114138811197E-05
(PID.TID 0000.0001) %MON vort_a_sd                    =   1.9250145653563E-05
(PID.TID 0000.0001) %MON vort_p_mean                  =   7.8095197769435E-05
(PID.TID 0000.0001) %MON vort_p_sd                    =   5.6519481808088E-05
(PID.TID 0000.0001) %MON surfExpan_theta_mean         =   1.3554229624097E-06
(PID.TID 0000.0001) %MON surfExpan_salt_mean          =  -2.7956274180103E-08
(PID.TID 0000.0001) // =======================================================
(PID.TID 0000.0001) // End MONITOR dynamic field statistics
(PID.TID 0000.0001) // =======================================================
time,SST,SSS,fu,fv,Q,E-P,i0,i1,a,b =   7.5600E+04  0.0000E+00  0.0000E+00  0.0000E+00  0.0000E+00  0.0000E+00  0.0000E+00     2     3  2.5000E-01  7.5000E-01
time,fu0,fu1,fu =   7.5600E+04  0.0000E+00  0.0000E+00  0.0000E+00  2.500000000000000E-01  7.500000000000000E-01
 cg2d: Sum(rhs),rhsMax =  -1.50990331349021E-14  5.46998424454297E-01
(PID.TID 0000.0001)                    cg2d_init_res =    8.44949906141244E-02
(PID.TID 0000.0001)                       cg2d_iters =    44
(PID.TID 0000.0001)                         cg2d_res =    7.64307142227464E-14
(PID.TID 0000.0001) // =======================================================
(PID.TID 0000.0001) // Begin MONITOR dynamic field statistics
(PID.TID 0000.0001) // =======================================================
(PID.TID 0000.0001) %MON time_tsnumber                =                    16
(PID.TID 0000.0001) %MON time_secondsf                =   7.9200000000000E+04
(PID.TID 0000.0001) %MON dynstat_eta_max              =   1.5312595202344E-01
(PID.TID 0000.0001) %MON dynstat_eta_min              =  -2.1730674947894E-01
(PID.TID 0000.0001) %MON dynstat_eta_mean             =   6.8937098333144E-17
(PID.TID 0000.0001) %MON dynstat_eta_sd               =   7.6872387568906E-02
(PID.TID 0000.0001) %MON dynstat_eta_del2             =   4.6428370913920E-03
(PID.TID 0000.0001) %MON dynstat_uvel_max             =   3.5648385133332E-02
(PID.TID 0000.0001) %MON dynstat_uvel_min             =  -2.2052325310110E-01
(PID.TID 0000.0001) %MON dynstat_uvel_mean            =  -1.3769727408937E-04
(PID.TID 0000.0001) %MON dynstat_uvel_sd              =   9.4054705463731E-03
(PID.TID 0000.0001) %MON dynstat_uvel_del2            =   2.8629702064122E-03
(PID.TID 0000.0001) %MON dynstat_vvel_max             =   8.9106343186955E-02
(PID.TID 0000.0001) %MON dynstat_vvel_min             =  -1.3642131528048E-01
(PID.TID 0000.0001) %MON dynstat_vvel_mean            =  -1.6855358422385E-04
(PID.TID 0000.0001) %MON dynstat_vvel_sd              =   6.5545643493834E-03
(PID.TID 0000.0001) %MON dynstat_vvel_del2            =   2.4598005381889E-03
(PID.TID 0000.0001) %MON dynstat_wvel_max             =   1.2178857641631E-04
(PID.TID 0000.0001) %MON dynstat_wvel_min             =  -1.7198964431643E-04
(PID.TID 0000.0001) %MON dynstat_wvel_mean            =  -6.7528723154006E-22
(PID.TID 0000.0001) %MON dynstat_wvel_sd              =   2.9925564738401E-05
(PID.TID 0000.0001) %MON dynstat_wvel_del2            =   6.7416978517654E-06
(PID.TID 0000.0001) %MON dynstat_theta_max            =   2.6141270336608E+01
(PID.TID 0000.0001) %MON dynstat_theta_min            =   1.8064647898859E+00
(PID.TID 0000.0001) %MON dynstat_theta_mean           =   5.4786608856729E+00
(PID.TID 0000.0001) %MON dynstat_theta_sd             =   4.5932212373830E+00
(PID.TID 0000.0001) %MON dynstat_theta_del2           =   5.1046765652490E-02
(PID.TID 0000.0001) %MON dynstat_salt_max             =   3.7404704864534E+01
(PID.TID 0000.0001) %MON dynstat_salt_min             =   3.4726820766663E+01
(PID.TID 0000.0001) %MON dynstat_salt_mean            =   3.5157572944519E+01
(PID.TID 0000.0001) %MON dynstat_salt_sd              =   4.1380992626163E-01
(PID.TID 0000.0001) %MON dynstat_salt_del2            =   1.2648564602227E-02
(PID.TID 0000.0001) %MON extforcing_qnet_max          =   5.1785995483398E+01
(PID.TID 0000.0001) %MON extforcing_qnet_min          =  -1.6640010070801E+02
(PID.TID 0000.0001) %MON extforcing_qnet_mean         =  -7.1740236129939E+01
(PID.TID 0000.0001) %MON extforcing_qnet_sd           =   5.0763762302510E+01
(PID.TID 0000.0001) %MON extforcing_qnet_del2         =   7.8684455467562E+00
(PID.TID 0000.0001) %MON extforcing_qsw_max           =  -1.3305171203613E+02
(PID.TID 0000.0001) %MON extforcing_qsw_min           =  -3.1786423492432E+02
(PID.TID 0000.0001) %MON extforcing_qsw_mean          =  -2.5092606306118E+02
(PID.TID 0000.0001) %MON extforcing_qsw_sd            =   4.2226722936044E+01
(PID.TID 0000.0001) %MON extforcing_qsw_del2          =   5.5239140646798E+00
(PID.TID 0000.0001) %MON extforcing_empmr_max         =   6.8301180591135E-05
(PID.TID 0000.0001) %MON extforcing_empmr_min         =   1.4154103348663E-05
(PID.TID 0000.0001) %MON extforcing_empmr_mean        =   4.2678582644125E-05
(PID.TID 0000.0001) %MON extforcing_empmr_sd          =   1.1674717394650E-05
(PID.TID 0000.0001) %MON extforcing_empmr_del2        =   2.2951058347733E-06
(PID.TID 0000.0001) %MON advcfl_uvel_max              =   3.6962923846144E-03
(PID.TID 0000.0001) %MON advcfl_vvel_max              =   2.2087061353455E-03
(PID.TID 0000.0001) %MON advcfl_wvel_max              =   4.5676511435780E-03
(PID.TID 0000.0001) %MON advcfl_W_hf_max              =   5.7095639294725E-03
(PID.TID 0000.0001) %MON pe_b_mean                    =   7.1231624298273E-06
(PID.TID 0000.0001) %MON ke_max                       =   2.5364870478404E-02
(PID.TID 0000.0001) %MON ke_mean                      =   5.8724644756226E-05
(PID.TID 0000.0001) %MON ke_vol                       =   3.6027486600263E+16
(PID.TID 0000.0001) %MON vort_r_min                   =  -4.9874574834890E-07
(PID.TID 0000.0001) %MON vort_r_max                   =   7.9374199383502E-07
(PID.TID 0000.0001) %MON vort_a_mean                  =   6.2114138811197E-05
(PID.TID 0000.0001) %MON vort_a_sd                    =   1.9250157067885E-05
(PID.TID 0000.0001) %MON vort_p_mean                  =   7.8095197769435E-05
(PID.TID 0000.0001) %MON vort_p_sd                    =   5.6519844154309E-05
(PID.TID 0000.0001) %MON surfExpan_theta_mean         =   1.5424362222430E-06
(PID.TID 0000.0001) %MON surfExpan_salt_mean          =  -7.8411216945954E-08
(PID.TID 0000.0001) // =======================================================
(PID.TID 0000.0001) // End MONITOR dynamic field statistics
(PID.TID 0000.0001) // =======================================================
time,SST,SSS,fu,fv,Q,E-P,i0,i1,a,b =   7.9200E+04  0.0000E+00  0.0000E+00  0.0000E+00  0.0000E+00  0.0000E+00  0.0000E+00     2     3  3.3333E-01  6.6667E-01
time,fu0,fu1,fu =   7.9200E+04  0.0000E+00  0.0000E+00  0.0000E+00  3.333333333333333E-01  6.666666666666667E-01
 cg2d: Sum(rhs),rhsMax =  -1.15463194561016E-14  5.50031522307246E-01
(PID.TID 0000.0001)                    cg2d_init_res =    7.84899888085779E-02
(PID.TID 0000.0001)                       cg2d_iters =    44
(PID.TID 0000.0001)                         cg2d_res =    6.39503131727302E-14
(PID.TID 0000.0001) // =======================================================
(PID.TID 0000.0001) // Begin MONITOR dynamic field statistics
(PID.TID 0000.0001) // =======================================================
(PID.TID 0000.0001) %MON time_tsnumber                =                    17
(PID.TID 0000.0001) %MON time_secondsf                =   8.2800000000000E+04
(PID.TID 0000.0001) %MON dynstat_eta_max              =   1.5410877218715E-01
(PID.TID 0000.0001) %MON dynstat_eta_min              =  -2.2191244197103E-01
(PID.TID 0000.0001) %MON dynstat_eta_mean             =   5.7907162599841E-17
(PID.TID 0000.0001) %MON dynstat_eta_sd               =   7.8156027560966E-02
(PID.TID 0000.0001) %MON dynstat_eta_del2             =   4.6855451801124E-03
(PID.TID 0000.0001) %MON dynstat_uvel_max             =   3.6230696485921E-02
(PID.TID 0000.0001) %MON dynstat_uvel_min             =  -2.2068364134612E-01
(PID.TID 0000.0001) %MON dynstat_uvel_mean            =  -1.0626382375060E-04
(PID.TID 0000.0001) %MON dynstat_uvel_sd              =   9.1456187811039E-03
(PID.TID 0000.0001) %MON dynstat_uvel_del2            =   2.5827638985899E-03
(PID.TID 0000.0001) %MON dynstat_vvel_max             =   1.0045511158340E-01
(PID.TID 0000.0001) %MON dynstat_vvel_min             =  -1.3119556599576E-01
(PID.TID 0000.0001) %MON dynstat_vvel_mean            =  -1.4911214137391E-04
(PID.TID 0000.0001) %MON dynstat_vvel_sd              =   6.3472710920737E-03
(PID.TID 0000.0001) %MON dynstat_vvel_del2            =   2.4031554570297E-03
(PID.TID 0000.0001) %MON dynstat_wvel_max             =   1.0916897405291E-04
(PID.TID 0000.0001) %MON dynstat_wvel_min             =  -1.7327920163855E-04
(PID.TID 0000.0001) %MON dynstat_wvel_mean            =  -4.5019148769337E-22
(PID.TID 0000.0001) %MON dynstat_wvel_sd              =   2.8456038586808E-05
(PID.TID 0000.0001) %MON dynstat_wvel_del2            =   6.3058378813544E-06
(PID.TID 0000.0001) %MON dynstat_theta_max            =   2.6147318778858E+01
(PID.TID 0000.0001) %MON dynstat_theta_min            =   1.8064672540098E+00
(PID.TID 0000.0001) %MON dynstat_theta_mean           =   5.4786749852709E+00
(PID.TID 0000.0001) %MON dynstat_theta_sd             =   4.5932669358749E+00
(PID.TID 0000.0001) %MON dynstat_theta_del2           =   5.1122577914631E-02
(PID.TID 0000.0001) %MON dynstat_salt_max             =   3.7405075245873E+01
(PID.TID 0000.0001) %MON dynstat_salt_min             =   3.4726826973261E+01
(PID.TID 0000.0001) %MON dynstat_salt_mean            =   3.5157574425656E+01
(PID.TID 0000.0001) %MON dynstat_salt_sd              =   4.1381352308763E-01
(PID.TID 0000.0001) %MON dynstat_salt_del2            =   1.2650038870288E-02
(PID.TID 0000.0001) %MON extforcing_qnet_max          =   5.2881464640299E+01
(PID.TID 0000.0001) %MON extforcing_qnet_min          =  -1.6767020924886E+02
(PID.TID 0000.0001) %MON extforcing_qnet_mean         =  -7.0784560829959E+01
(PID.TID 0000.0001) %MON extforcing_qnet_sd           =   5.0376618745466E+01
(PID.TID 0000.0001) %MON extforcing_qnet_del2         =   7.8122522952326E+00
(PID.TID 0000.0001) %MON extforcing_qsw_max           =  -1.3255586751302E+02
(PID.TID 0000.0001) %MON extforcing_qsw_min           =  -3.1758445231120E+02
(PID.TID 0000.0001) %MON extforcing_qsw_mean          =  -2.5137408645830E+02
(PID.TID 0000.0001) %MON extforcing_qsw_sd            =   4.2032969606024E+01
(PID.TID 0000.0001) %MON extforcing_qsw_del2          =   5.4213342525689E+00
(PID.TID 0000.0001) %MON extforcing_empmr_max         =   6.8865692161542E-05
(PID.TID 0000.0001) %MON extforcing_empmr_min         =   1.4238836827474E-05
(PID.TID 0000.0001) %MON extforcing_empmr_mean        =   4.3099855155366E-05
(PID.TID 0000.0001) %MON extforcing_empmr_sd          =   1.1631123659352E-05
(PID.TID 0000.0001) %MON extforcing_empmr_del2        =   2.2961928428759E-06
(PID.TID 0000.0001) %MON advcfl_uvel_max              =   3.6989807262758E-03
(PID.TID 0000.0001) %MON advcfl_vvel_max              =   2.1240995290890E-03
(PID.TID 0000.0001) %MON advcfl_wvel_max              =   4.8534223335986E-03
(PID.TID 0000.0001) %MON advcfl_W_hf_max              =   6.0667779169982E-03
(PID.TID 0000.0001) %MON pe_b_mean                    =   7.3630383502350E-06
(PID.TID 0000.0001) %MON ke_max                       =   2.5683957079671E-02
(PID.TID 0000.0001) %MON ke_mean                      =   5.5373165479814E-05
(PID.TID 0000.0001) %MON ke_vol                       =   3.6027486600263E+16
(PID.TID 0000.0001) %MON vort_r_min                   =  -4.8939419211651E-07
(PID.TID 0000.0001) %MON vort_r_max                   =   7.8430197017507E-07
(PID.TID 0000.0001) %MON vort_a_mean                  =   6.2114138811197E-05
(PID.TID 0000.0001) %MON vort_a_sd                    =   1.9250178772876E-05
(PID.TID 0000.0001) %MON vort_p_mean                  =   7.8095197769435E-05
(PID.TID 0000.0001) %MON vort_p_sd                    =   5.6520442760434E-05
(PID.TID 0000.0001) %MON surfExpan_theta_mean         =   1.2578293444491E-06
(PID.TID 0000.0001) %MON surfExpan_salt_mean          =  -8.5523994608931E-08
(PID.TID 0000.0001) // =======================================================
(PID.TID 0000.0001) // End MONITOR dynamic field statistics
(PID.TID 0000.0001) // =======================================================
time,SST,SSS,fu,fv,Q,E-P,i0,i1,a,b =   8.2800E+04  0.0000E+00  0.0000E+00  0.0000E+00  0.0000E+00  0.0000E+00  0.0000E+00     2     3  4.1667E-01  5.8333E-01
time,fu0,fu1,fu =   8.2800E+04  0.0000E+00  0.0000E+00  0.0000E+00  4.166666666666667E-01  5.833333333333333E-01
 cg2d: Sum(rhs),rhsMax =  -1.42108547152020E-14  5.51984156610141E-01
(PID.TID 0000.0001)                    cg2d_init_res =    6.93302193016450E-02
(PID.TID 0000.0001)                       cg2d_iters =    44
(PID.TID 0000.0001)                         cg2d_res =    8.72426213325456E-14
(PID.TID 0000.0001) // =======================================================
(PID.TID 0000.0001) // Begin MONITOR dynamic field statistics
(PID.TID 0000.0001) // =======================================================
(PID.TID 0000.0001) %MON time_tsnumber                =                    18
(PID.TID 0000.0001) %MON time_secondsf                =   8.6400000000000E+04
(PID.TID 0000.0001) %MON dynstat_eta_max              =   1.5410381314170E-01
(PID.TID 0000.0001) %MON dynstat_eta_min              =  -2.2501885274745E-01
(PID.TID 0000.0001) %MON dynstat_eta_mean             =   4.6877226866538E-17
(PID.TID 0000.0001) %MON dynstat_eta_sd               =   7.8801351076557E-02
(PID.TID 0000.0001) %MON dynstat_eta_del2             =   4.7292614398548E-03
(PID.TID 0000.0001) %MON dynstat_uvel_max             =   3.5044023334051E-02
(PID.TID 0000.0001) %MON dynstat_uvel_min             =  -2.1906622108204E-01
(PID.TID 0000.0001) %MON dynstat_uvel_mean            =  -7.1652044340420E-05
(PID.TID 0000.0001) %MON dynstat_uvel_sd              =   8.8304317315517E-03
(PID.TID 0000.0001) %MON dynstat_uvel_del2            =   2.3305987581582E-03
(PID.TID 0000.0001) %MON dynstat_vvel_max             =   1.1174796060647E-01
(PID.TID 0000.0001) %MON dynstat_vvel_min             =  -1.2556641366803E-01
(PID.TID 0000.0001) %MON dynstat_vvel_mean            =  -9.1507169236277E-05
(PID.TID 0000.0001) %MON dynstat_vvel_sd              =   6.1604521230133E-03
(PID.TID 0000.0001) %MON dynstat_vvel_del2            =   2.2790032449605E-03
(PID.TID 0000.0001) %MON dynstat_wvel_max             =   9.5010676146085E-05
(PID.TID 0000.0001) %MON dynstat_wvel_min             =  -1.7291312635531E-04
(PID.TID 0000.0001) %MON dynstat_wvel_mean            =  -4.5019148769337E-22
(PID.TID 0000.0001) %MON dynstat_wvel_sd              =   2.6772644497987E-05
(PID.TID 0000.0001) %MON dynstat_wvel_del2            =   5.7802198302390E-06
(PID.TID 0000.0001) %MON dynstat_theta_max            =   2.6153283851030E+01
(PID.TID 0000.0001) %MON dynstat_theta_min            =   1.8064699549620E+00
(PID.TID 0000.0001) %MON dynstat_theta_mean           =   5.4786893788806E+00
(PID.TID 0000.0001) %MON dynstat_theta_sd             =   4.5933137423217E+00
(PID.TID 0000.0001) %MON dynstat_theta_del2           =   5.1196164021421E-02
(PID.TID 0000.0001) %MON dynstat_salt_max             =   3.7405444948859E+01
(PID.TID 0000.0001) %MON dynstat_salt_min             =   3.4726833643915E+01
(PID.TID 0000.0001) %MON dynstat_salt_mean            =   3.5157575902213E+01
(PID.TID 0000.0001) %MON dynstat_salt_sd              =   4.1381714525705E-01
(PID.TID 0000.0001) %MON dynstat_salt_del2            =   1.2651193619845E-02
(PID.TID 0000.0001) %MON extforcing_qnet_max          =   5.4347905476888E+01
(PID.TID 0000.0001) %MON extforcing_qnet_min          =  -1.6894031778971E+02
(PID.TID 0000.0001) %MON extforcing_qnet_mean         =  -6.9828885529979E+01
(PID.TID 0000.0001) %MON extforcing_qnet_sd           =   5.0046698479458E+01
(PID.TID 0000.0001) %MON extforcing_qnet_del2         =   7.7698886273138E+00
(PID.TID 0000.0001) %MON extforcing_qsw_max           =  -1.3206002298991E+02
(PID.TID 0000.0001) %MON extforcing_qsw_min           =  -3.1730466969808E+02
(PID.TID 0000.0001) %MON extforcing_qsw_mean          =  -2.5182210985542E+02
(PID.TID 0000.0001) %MON extforcing_qsw_sd            =   4.1891013837849E+01
(PID.TID 0000.0001) %MON extforcing_qsw_del2          =   5.3378500037984E+00
(PID.TID 0000.0001) %MON extforcing_empmr_max         =   6.9430203731950E-05
(PID.TID 0000.0001) %MON extforcing_empmr_min         =   1.4323570306285E-05
(PID.TID 0000.0001) %MON extforcing_empmr_mean        =   4.3521127666606E-05
(PID.TID 0000.0001) %MON extforcing_empmr_sd          =   1.1605877390574E-05
(PID.TID 0000.0001) %MON extforcing_empmr_del2        =   2.2998797237074E-06
(PID.TID 0000.0001) %MON advcfl_uvel_max              =   3.6718703960917E-03
(PID.TID 0000.0001) %MON advcfl_vvel_max              =   2.0329616943782E-03
(PID.TID 0000.0001) %MON advcfl_wvel_max              =   5.0172620964151E-03
(PID.TID 0000.0001) %MON advcfl_W_hf_max              =   6.2715776205189E-03
(PID.TID 0000.0001) %MON pe_b_mean                    =   7.4851315106571E-06
(PID.TID 0000.0001) %MON ke_max                       =   2.5736688948605E-02
(PID.TID 0000.0001) %MON ke_mean                      =   5.1786753706847E-05
(PID.TID 0000.0001) %MON ke_vol                       =   3.6027486600263E+16
(PID.TID 0000.0001) %MON vort_r_min                   =  -4.5893071334926E-07
(PID.TID 0000.0001) %MON vort_r_max                   =   7.7250866085892E-07
(PID.TID 0000.0001) %MON vort_a_mean                  =   6.2114138811197E-05
(PID.TID 0000.0001) %MON vort_a_sd                    =   1.9250203078884E-05
(PID.TID 0000.0001) %MON vort_p_mean                  =   7.8095197769435E-05
(PID.TID 0000.0001) %MON vort_p_sd                    =   5.6521197004212E-05
(PID.TID 0000.0001) %MON surfExpan_theta_mean         =   7.0332418763941E-07
(PID.TID 0000.0001) %MON surfExpan_salt_mean          =  -6.2149616314862E-08
(PID.TID 0000.0001) // =======================================================
(PID.TID 0000.0001) // End MONITOR dynamic field statistics
(PID.TID 0000.0001) // =======================================================
time,SST,SSS,fu,fv,Q,E-P,i0,i1,a,b =   8.6400E+04  0.0000E+00  0.0000E+00  0.0000E+00  0.0000E+00  0.0000E+00  0.0000E+00     2     3  5.0000E-01  5.0000E-01
time,fu0,fu1,fu =   8.6400E+04  0.0000E+00  0.0000E+00  0.0000E+00  5.000000000000000E-01  5.000000000000000E-01
 cg2d: Sum(rhs),rhsMax =  -1.42108547152020E-14  5.52208726398904E-01
(PID.TID 0000.0001)                    cg2d_init_res =    6.30035629970181E-02
(PID.TID 0000.0001)                       cg2d_iters =    44
(PID.TID 0000.0001)                         cg2d_res =    9.42799131913475E-14
(PID.TID 0000.0001) // =======================================================
(PID.TID 0000.0001) // Begin MONITOR dynamic field statistics
(PID.TID 0000.0001) // =======================================================
(PID.TID 0000.0001) %MON time_tsnumber                =                    19
(PID.TID 0000.0001) %MON time_secondsf                =   9.0000000000000E+04
(PID.TID 0000.0001) %MON dynstat_eta_max              =   1.5332445152385E-01
(PID.TID 0000.0001) %MON dynstat_eta_min              =  -2.2629392831072E-01
(PID.TID 0000.0001) %MON dynstat_eta_mean             =   4.1362258999887E-17
(PID.TID 0000.0001) %MON dynstat_eta_sd               =   7.8818705301694E-02
(PID.TID 0000.0001) %MON dynstat_eta_del2             =   4.7724255660015E-03
(PID.TID 0000.0001) %MON dynstat_uvel_max             =   3.2247398750480E-02
(PID.TID 0000.0001) %MON dynstat_uvel_min             =  -2.1577631961466E-01
(PID.TID 0000.0001) %MON dynstat_uvel_mean            =  -4.3111812504039E-05
(PID.TID 0000.0001) %MON dynstat_uvel_sd              =   8.4801286875018E-03
(PID.TID 0000.0001) %MON dynstat_uvel_del2            =   2.1464592479688E-03
(PID.TID 0000.0001) %MON dynstat_vvel_max             =   1.2152899181840E-01
(PID.TID 0000.0001) %MON dynstat_vvel_min             =  -1.1967192833097E-01
(PID.TID 0000.0001) %MON dynstat_vvel_mean            =  -2.2639833261863E-05
(PID.TID 0000.0001) %MON dynstat_vvel_sd              =   6.0232829677488E-03
(PID.TID 0000.0001) %MON dynstat_vvel_del2            =   2.1320151157976E-03
(PID.TID 0000.0001) %MON dynstat_wvel_max             =   7.9715664360717E-05
(PID.TID 0000.0001) %MON dynstat_wvel_min             =  -1.7102914905725E-04
(PID.TID 0000.0001) %MON dynstat_wvel_mean            =  -1.5756702069268E-21
(PID.TID 0000.0001) %MON dynstat_wvel_sd              =   2.5185787141359E-05
(PID.TID 0000.0001) %MON dynstat_wvel_del2            =   5.3789625790239E-06
(PID.TID 0000.0001) %MON dynstat_theta_max            =   2.6159176860737E+01
(PID.TID 0000.0001) %MON dynstat_theta_min            =   1.8064728977037E+00
(PID.TID 0000.0001) %MON dynstat_theta_mean           =   5.4787041980345E+00
(PID.TID 0000.0001) %MON dynstat_theta_sd             =   4.5933621368500E+00
(PID.TID 0000.0001) %MON dynstat_theta_del2           =   5.1261885886888E-02
(PID.TID 0000.0001) %MON dynstat_salt_max             =   3.7405812556523E+01
(PID.TID 0000.0001) %MON dynstat_salt_min             =   3.4726840749704E+01
(PID.TID 0000.0001) %MON dynstat_salt_mean            =   3.5157577354163E+01
(PID.TID 0000.0001) %MON dynstat_salt_sd              =   4.1382073993313E-01
(PID.TID 0000.0001) %MON dynstat_salt_del2            =   1.2652028737692E-02
(PID.TID 0000.0001) %MON extforcing_qnet_max          =   5.5814346313477E+01
(PID.TID 0000.0001) %MON extforcing_qnet_min          =  -1.7021042633057E+02
(PID.TID 0000.0001) %MON extforcing_qnet_mean         =  -6.8873210229999E+01
(PID.TID 0000.0001) %MON extforcing_qnet_sd           =   4.9775139382117E+01
(PID.TID 0000.0001) %MON extforcing_qnet_del2         =   7.7450188603894E+00
(PID.TID 0000.0001) %MON extforcing_qsw_max           =  -1.3156417846680E+02
(PID.TID 0000.0001) %MON extforcing_qsw_min           =  -3.1702488708496E+02
(PID.TID 0000.0001) %MON extforcing_qsw_mean          =  -2.5227013325255E+02
(PID.TID 0000.0001) %MON extforcing_qsw_sd            =   4.1801383341981E+01
(PID.TID 0000.0001) %MON extforcing_qsw_del2          =   5.2682711408643E+00
(PID.TID 0000.0001) %MON extforcing_empmr_max         =   6.9994715302357E-05
(PID.TID 0000.0001) %MON extforcing_empmr_min         =   1.4408303785096E-05
(PID.TID 0000.0001) %MON extforcing_empmr_mean        =   4.3942400177846E-05
(PID.TID 0000.0001) %MON extforcing_empmr_sd          =   1.1599098392661E-05
(PID.TID 0000.0001) %MON extforcing_empmr_del2        =   2.3051954866864E-06
(PID.TID 0000.0001) %MON advcfl_uvel_max              =   3.6167268338189E-03
(PID.TID 0000.0001) %MON advcfl_vvel_max              =   1.9675945016348E-03
(PID.TID 0000.0001) %MON advcfl_wvel_max              =   5.0911432170706E-03
(PID.TID 0000.0001) %MON advcfl_W_hf_max              =   6.3639290213383E-03
(PID.TID 0000.0001) %MON pe_b_mean                    =   7.4884287373994E-06
(PID.TID 0000.0001) %MON ke_max                       =   2.5515751237492E-02
(PID.TID 0000.0001) %MON ke_mean                      =   4.8317309298131E-05
(PID.TID 0000.0001) %MON ke_vol                       =   3.6027486600263E+16
(PID.TID 0000.0001) %MON vort_r_min                   =  -4.1139918697012E-07
(PID.TID 0000.0001) %MON vort_r_max                   =   7.5821136221821E-07
(PID.TID 0000.0001) %MON vort_a_mean                  =   6.2114138811197E-05
(PID.TID 0000.0001) %MON vort_a_sd                    =   1.9250222715696E-05
(PID.TID 0000.0001) %MON vort_p_mean                  =   7.8095197769435E-05
(PID.TID 0000.0001) %MON vort_p_sd                    =   5.6522007152179E-05
(PID.TID 0000.0001) %MON surfExpan_theta_mean         =   1.0370505090317E-07
(PID.TID 0000.0001) %MON surfExpan_salt_mean          =  -2.4920410292986E-08
(PID.TID 0000.0001) // =======================================================
(PID.TID 0000.0001) // End MONITOR dynamic field statistics
(PID.TID 0000.0001) // =======================================================
time,SST,SSS,fu,fv,Q,E-P,i0,i1,a,b =   9.0000E+04  0.0000E+00  0.0000E+00  0.0000E+00  0.0000E+00  0.0000E+00  0.0000E+00     2     3  5.8333E-01  4.1667E-01
time,fu0,fu1,fu =   9.0000E+04  0.0000E+00  0.0000E+00  0.0000E+00  5.833333333333334E-01  4.166666666666666E-01
 cg2d: Sum(rhs),rhsMax =  -5.32907051820075E-15  5.50550734655140E-01
(PID.TID 0000.0001)                    cg2d_init_res =    6.12672349034817E-02
(PID.TID 0000.0001)                       cg2d_iters =    44
(PID.TID 0000.0001)                         cg2d_res =    8.21337849247191E-14
(PID.TID 0000.0001) // =======================================================
(PID.TID 0000.0001) // Begin MONITOR dynamic field statistics
(PID.TID 0000.0001) // =======================================================
(PID.TID 0000.0001) %MON time_tsnumber                =                    20
(PID.TID 0000.0001) %MON time_secondsf                =   9.3600000000000E+04
(PID.TID 0000.0001) %MON dynstat_eta_max              =   1.5214528351131E-01
(PID.TID 0000.0001) %MON dynstat_eta_min              =  -2.2600749705854E-01
(PID.TID 0000.0001) %MON dynstat_eta_mean             =   2.4817355399932E-17
(PID.TID 0000.0001) %MON dynstat_eta_sd               =   7.8404724930783E-02
(PID.TID 0000.0001) %MON dynstat_eta_del2             =   4.8124413670598E-03
(PID.TID 0000.0001) %MON dynstat_uvel_max             =   3.2065399569921E-02
(PID.TID 0000.0001) %MON dynstat_uvel_min             =  -2.1091147887940E-01
(PID.TID 0000.0001) %MON dynstat_uvel_mean            =  -2.7409523650879E-05
(PID.TID 0000.0001) %MON dynstat_uvel_sd              =   8.1202226285129E-03
(PID.TID 0000.0001) %MON dynstat_uvel_del2            =   2.0419739009129E-03
(PID.TID 0000.0001) %MON dynstat_vvel_max             =   1.2958249175710E-01
(PID.TID 0000.0001) %MON dynstat_vvel_min             =  -1.1366336648913E-01
(PID.TID 0000.0001) %MON dynstat_vvel_mean            =   3.5279380764480E-05
(PID.TID 0000.0001) %MON dynstat_vvel_sd              =   5.9549051390954E-03
(PID.TID 0000.0001) %MON dynstat_vvel_del2            =   2.0287158058058E-03
(PID.TID 0000.0001) %MON dynstat_wvel_max             =   6.5730724072944E-05
(PID.TID 0000.0001) %MON dynstat_wvel_min             =  -1.6775795108785E-04
(PID.TID 0000.0001) %MON dynstat_wvel_mean            =   1.1254787192334E-22
(PID.TID 0000.0001) %MON dynstat_wvel_sd              =   2.4042780791638E-05
(PID.TID 0000.0001) %MON dynstat_wvel_del2            =   5.2883250296302E-06
(PID.TID 0000.0001) %MON dynstat_theta_max            =   2.6164998053647E+01
(PID.TID 0000.0001) %MON dynstat_theta_min            =   1.8064760800452E+00
(PID.TID 0000.0001) %MON dynstat_theta_mean           =   5.4787193630581E+00
(PID.TID 0000.0001) %MON dynstat_theta_sd             =   4.5934118188886E+00
(PID.TID 0000.0001) %MON dynstat_theta_del2           =   5.1320295866835E-02
(PID.TID 0000.0001) %MON dynstat_salt_max             =   3.7406176365448E+01
(PID.TID 0000.0001) %MON dynstat_salt_min             =   3.4726848318801E+01
(PID.TID 0000.0001) %MON dynstat_salt_mean            =   3.5157578778113E+01
(PID.TID 0000.0001) %MON dynstat_salt_sd              =   4.1382429193418E-01
(PID.TID 0000.0001) %MON dynstat_salt_del2            =   1.2652658207683E-02
(PID.TID 0000.0001) %MON extforcing_qnet_max          =   5.7280787150065E+01
(PID.TID 0000.0001) %MON extforcing_qnet_min          =  -1.7148053487142E+02
(PID.TID 0000.0001) %MON extforcing_qnet_mean         =  -6.7917534930019E+01
(PID.TID 0000.0001) %MON extforcing_qnet_sd           =   4.9562900759258E+01
(PID.TID 0000.0001) %MON extforcing_qnet_del2         =   7.7331181872263E+00
(PID.TID 0000.0001) %MON extforcing_qsw_max           =  -1.3106833394368E+02
(PID.TID 0000.0001) %MON extforcing_qsw_min           =  -3.1762956492106E+02
(PID.TID 0000.0001) %MON extforcing_qsw_mean          =  -2.5271815664967E+02
(PID.TID 0000.0001) %MON extforcing_qsw_sd            =   4.1764415005147E+01
(PID.TID 0000.0001) %MON extforcing_qsw_del2          =   5.2155629425800E+00
(PID.TID 0000.0001) %MON extforcing_empmr_max         =   7.0559226872765E-05
(PID.TID 0000.0001) %MON extforcing_empmr_min         =   1.4493037263907E-05
(PID.TID 0000.0001) %MON extforcing_empmr_mean        =   4.4363672689087E-05
(PID.TID 0000.0001) %MON extforcing_empmr_sd          =   1.1610819012107E-05
(PID.TID 0000.0001) %MON extforcing_empmr_del2        =   2.3117338043803E-06
(PID.TID 0000.0001) %MON advcfl_uvel_max              =   3.5351849850151E-03
(PID.TID 0000.0001) %MON advcfl_vvel_max              =   2.0979833245913E-03
(PID.TID 0000.0001) %MON advcfl_wvel_max              =   5.1094145130544E-03
(PID.TID 0000.0001) %MON advcfl_W_hf_max              =   6.3867681413180E-03
(PID.TID 0000.0001) %MON pe_b_mean                    =   7.4099722022949E-06
(PID.TID 0000.0001) %MON ke_max                       =   2.5018751239577E-02
(PID.TID 0000.0001) %MON ke_mean                      =   4.5267183760800E-05
(PID.TID 0000.0001) %MON ke_vol                       =   3.6027486600263E+16
(PID.TID 0000.0001) %MON vort_r_min                   =  -3.8424422038457E-07
(PID.TID 0000.0001) %MON vort_r_max                   =   7.4094365177003E-07
(PID.TID 0000.0001) %MON vort_a_mean                  =   6.2114138811197E-05
(PID.TID 0000.0001) %MON vort_a_sd                    =   1.9250232430485E-05
(PID.TID 0000.0001) %MON vort_p_mean                  =   7.8095197769435E-05
(PID.TID 0000.0001) %MON vort_p_sd                    =   5.6522772927670E-05
(PID.TID 0000.0001) %MON surfExpan_theta_mean         =  -3.6161589256864E-07
(PID.TID 0000.0001) %MON surfExpan_salt_mean          =   1.2164656515135E-08
(PID.TID 0000.0001) // =======================================================
(PID.TID 0000.0001) // End MONITOR dynamic field statistics
(PID.TID 0000.0001) // =======================================================
(PID.TID 0000.0001) %CHECKPOINT        20 ckptA
(PID.TID 0000.0001)   Seconds in section "ALL                    [THE_MODEL_MAIN]":
(PID.TID 0000.0001)           User time:  6.31803917
(PID.TID 0000.0001)         System time:  0.126981
(PID.TID 0000.0001)     Wall clock time:  6.62941504
(PID.TID 0000.0001)          No. starts: 1
(PID.TID 0000.0001)           No. stops: 1
(PID.TID 0000.0001)   Seconds in section "INITIALISE_FIXED       [THE_MODEL_MAIN]":
(PID.TID 0000.0001)           User time:  0.384941007
(PID.TID 0000.0001)         System time:  0.0419940003
(PID.TID 0000.0001)     Wall clock time:  0.502927065
(PID.TID 0000.0001)          No. starts: 1
(PID.TID 0000.0001)           No. stops: 1
(PID.TID 0000.0001)   Seconds in section "THE_MAIN_LOOP          [THE_MODEL_MAIN]":
(PID.TID 0000.0001)           User time:  5.93309817
(PID.TID 0000.0001)         System time:  0.0849869996
(PID.TID 0000.0001)     Wall clock time:  6.12635088
(PID.TID 0000.0001)          No. starts: 1
(PID.TID 0000.0001)           No. stops: 1
(PID.TID 0000.0001)   Seconds in section "INITIALISE_VARIA    [THE_MAIN_LOOP]":
(PID.TID 0000.0001)           User time:  0.0699899793
(PID.TID 0000.0001)         System time:  0.0219959989
(PID.TID 0000.0001)     Wall clock time:  0.173984051
(PID.TID 0000.0001)          No. starts: 1
(PID.TID 0000.0001)           No. stops: 1
(PID.TID 0000.0001)   Seconds in section "MAIN LOOP           [THE_MAIN_LOOP]":
(PID.TID 0000.0001)           User time:  5.86310819
(PID.TID 0000.0001)         System time:  0.0629910007
(PID.TID 0000.0001)     Wall clock time:  5.95224404
(PID.TID 0000.0001)          No. starts: 1
(PID.TID 0000.0001)           No. stops: 1
(PID.TID 0000.0001)   Seconds in section "FORWARD_STEP        [THE_MAIN_LOOP]":
(PID.TID 0000.0001)           User time:  5.86310819
(PID.TID 0000.0001)         System time:  0.0629910007
(PID.TID 0000.0001)     Wall clock time:  5.95139694
(PID.TID 0000.0001)          No. starts: 20
(PID.TID 0000.0001)           No. stops: 20
(PID.TID 0000.0001)   Seconds in section "DO_STATEVARS_DIAGS  [FORWARD_STEP]":
(PID.TID 0000.0001)           User time:  0.000999927521
(PID.TID 0000.0001)         System time:  0.
(PID.TID 0000.0001)     Wall clock time:  0.00221323967
(PID.TID 0000.0001)          No. starts: 40
(PID.TID 0000.0001)           No. stops: 40
(PID.TID 0000.0001)   Seconds in section "LOAD_FIELDS_DRIVER  [FORWARD_STEP]":
(PID.TID 0000.0001)           User time:  0.0169963241
(PID.TID 0000.0001)         System time:  0.
(PID.TID 0000.0001)     Wall clock time:  0.0201842785
(PID.TID 0000.0001)          No. starts: 20
(PID.TID 0000.0001)           No. stops: 20
(PID.TID 0000.0001)   Seconds in section "EXTERNAL_FLDS_LOAD [LOAD_FLDS_DRIVER]":
(PID.TID 0000.0001)           User time:  0.0169963241
(PID.TID 0000.0001)         System time:  0.
(PID.TID 0000.0001)     Wall clock time:  0.0186038017
(PID.TID 0000.0001)          No. starts: 20
(PID.TID 0000.0001)           No. stops: 20
(PID.TID 0000.0001)   Seconds in section "DO_ATMOSPHERIC_PHYS [FORWARD_STEP]":
(PID.TID 0000.0001)           User time:  0.000999927521
(PID.TID 0000.0001)         System time:  0.
(PID.TID 0000.0001)     Wall clock time:  0.000796079636
(PID.TID 0000.0001)          No. starts: 20
(PID.TID 0000.0001)           No. stops: 20
(PID.TID 0000.0001)   Seconds in section "DO_OCEANIC_PHYS     [FORWARD_STEP]":
(PID.TID 0000.0001)           User time:  1.52576873
(PID.TID 0000.0001)         System time:  0.00699800998
(PID.TID 0000.0001)     Wall clock time:  1.5364778
(PID.TID 0000.0001)          No. starts: 20
(PID.TID 0000.0001)           No. stops: 20
(PID.TID 0000.0001)   Seconds in section "KPP_CALC [DO_OCEANIC_PHYS]":
(PID.TID 0000.0001)           User time:  1.42378733
(PID.TID 0000.0001)         System time:  0.00599800795
(PID.TID 0000.0001)     Wall clock time:  1.43083811
(PID.TID 0000.0001)          No. starts: 80
(PID.TID 0000.0001)           No. stops: 80
(PID.TID 0000.0001)   Seconds in section "THERMODYNAMICS      [FORWARD_STEP]":
(PID.TID 0000.0001)           User time:  1.0868333
(PID.TID 0000.0001)         System time:  0.
(PID.TID 0000.0001)     Wall clock time:  1.08627534
(PID.TID 0000.0001)          No. starts: 20
(PID.TID 0000.0001)           No. stops: 20
(PID.TID 0000.0001)   Seconds in section "DYNAMICS            [FORWARD_STEP]":
(PID.TID 0000.0001)           User time:  2.31065089
(PID.TID 0000.0001)         System time:  0.00100000203
(PID.TID 0000.0001)     Wall clock time:  2.31405091
(PID.TID 0000.0001)          No. starts: 20
(PID.TID 0000.0001)           No. stops: 20
(PID.TID 0000.0001)   Seconds in section "SOLVE_FOR_PRESSURE  [FORWARD_STEP]":
(PID.TID 0000.0001)           User time:  0.161972046
(PID.TID 0000.0001)         System time:  0.
(PID.TID 0000.0001)     Wall clock time:  0.160843611
(PID.TID 0000.0001)          No. starts: 20
(PID.TID 0000.0001)           No. stops: 20
(PID.TID 0000.0001)   Seconds in section "MOM_CORRECTION_STEP [FORWARD_STEP]":
(PID.TID 0000.0001)           User time:  0.080988884
(PID.TID 0000.0001)         System time:  0.
(PID.TID 0000.0001)     Wall clock time:  0.0814669132
(PID.TID 0000.0001)          No. starts: 20
(PID.TID 0000.0001)           No. stops: 20
(PID.TID 0000.0001)   Seconds in section "TRC_CORRECTION_STEP [FORWARD_STEP]":
(PID.TID 0000.0001)           User time:  0.0339961648
(PID.TID 0000.0001)         System time:  0.
(PID.TID 0000.0001)     Wall clock time:  0.0341212749
(PID.TID 0000.0001)          No. starts: 20
(PID.TID 0000.0001)           No. stops: 20
(PID.TID 0000.0001)   Seconds in section "BLOCKING_EXCHANGES  [FORWARD_STEP]":
(PID.TID 0000.0001)           User time:  0.191970408
(PID.TID 0000.0001)         System time:  0.
(PID.TID 0000.0001)     Wall clock time:  0.18744421
(PID.TID 0000.0001)          No. starts: 20
(PID.TID 0000.0001)           No. stops: 20
(PID.TID 0000.0001)   Seconds in section "DO_STATEVARS_TAVE   [FORWARD_STEP]":
(PID.TID 0000.0001)           User time:  0.
(PID.TID 0000.0001)         System time:  0.
(PID.TID 0000.0001)     Wall clock time:  0.000795602798
(PID.TID 0000.0001)          No. starts: 20
(PID.TID 0000.0001)           No. stops: 20
(PID.TID 0000.0001)   Seconds in section "MONITOR             [FORWARD_STEP]":
(PID.TID 0000.0001)           User time:  0.316951632
(PID.TID 0000.0001)         System time:  0.00299999118
(PID.TID 0000.0001)     Wall clock time:  0.318844795
(PID.TID 0000.0001)          No. starts: 20
(PID.TID 0000.0001)           No. stops: 20
(PID.TID 0000.0001)   Seconds in section "DO_THE_MODEL_IO     [FORWARD_STEP]":
(PID.TID 0000.0001)           User time:  0.0889837146
(PID.TID 0000.0001)         System time:  0.0399939939
(PID.TID 0000.0001)     Wall clock time:  0.147988796
(PID.TID 0000.0001)          No. starts: 20
(PID.TID 0000.0001)           No. stops: 20
(PID.TID 0000.0001)   Seconds in section "DO_WRITE_PICKUP     [FORWARD_STEP]":
(PID.TID 0000.0001)           User time:  0.0339952111
(PID.TID 0000.0001)         System time:  0.0119990036
(PID.TID 0000.0001)     Wall clock time:  0.0466430187
(PID.TID 0000.0001)          No. starts: 20
(PID.TID 0000.0001)           No. stops: 20
(PID.TID 0000.0001) // ======================================================
(PID.TID 0000.0001) // Tile <-> Tile communication statistics
(PID.TID 0000.0001) // ======================================================
(PID.TID 0000.0001) // o Tile number: 000001
(PID.TID 0000.0001) //         No. X exchanges =              0
(PID.TID 0000.0001) //            Max. X spins =              0
(PID.TID 0000.0001) //            Min. X spins =     1000000000
(PID.TID 0000.0001) //          Total. X spins =              0
(PID.TID 0000.0001) //            Avg. X spins =       0.00E+00
(PID.TID 0000.0001) //         No. Y exchanges =              0
(PID.TID 0000.0001) //            Max. Y spins =              0
(PID.TID 0000.0001) //            Min. Y spins =     1000000000
(PID.TID 0000.0001) //          Total. Y spins =              0
(PID.TID 0000.0001) //            Avg. Y spins =       0.00E+00
(PID.TID 0000.0001) // o Tile number: 000002
(PID.TID 0000.0001) //         No. X exchanges =              0
(PID.TID 0000.0001) //            Max. X spins =              0
(PID.TID 0000.0001) //            Min. X spins =     1000000000
(PID.TID 0000.0001) //          Total. X spins =              0
(PID.TID 0000.0001) //            Avg. X spins =       0.00E+00
(PID.TID 0000.0001) //         No. Y exchanges =              0
(PID.TID 0000.0001) //            Max. Y spins =              0
(PID.TID 0000.0001) //            Min. Y spins =     1000000000
(PID.TID 0000.0001) //          Total. Y spins =              0
(PID.TID 0000.0001) //            Avg. Y spins =       0.00E+00
(PID.TID 0000.0001) // o Tile number: 000003
(PID.TID 0000.0001) //         No. X exchanges =              0
(PID.TID 0000.0001) //            Max. X spins =              0
(PID.TID 0000.0001) //            Min. X spins =     1000000000
(PID.TID 0000.0001) //          Total. X spins =              0
(PID.TID 0000.0001) //            Avg. X spins =       0.00E+00
(PID.TID 0000.0001) //         No. Y exchanges =              0
(PID.TID 0000.0001) //            Max. Y spins =              0
(PID.TID 0000.0001) //            Min. Y spins =     1000000000
(PID.TID 0000.0001) //          Total. Y spins =              0
(PID.TID 0000.0001) //            Avg. Y spins =       0.00E+00
(PID.TID 0000.0001) // o Tile number: 000004
(PID.TID 0000.0001) //         No. X exchanges =              0
(PID.TID 0000.0001) //            Max. X spins =              0
(PID.TID 0000.0001) //            Min. X spins =     1000000000
(PID.TID 0000.0001) //          Total. X spins =              0
(PID.TID 0000.0001) //            Avg. X spins =       0.00E+00
(PID.TID 0000.0001) //         No. Y exchanges =              0
(PID.TID 0000.0001) //            Max. Y spins =              0
(PID.TID 0000.0001) //            Min. Y spins =     1000000000
(PID.TID 0000.0001) //          Total. Y spins =              0
(PID.TID 0000.0001) //            Avg. Y spins =       0.00E+00
(PID.TID 0000.0001) // o Thread number: 000001
(PID.TID 0000.0001) //            No. barriers =          10320
(PID.TID 0000.0001) //      Max. barrier spins =              1
(PID.TID 0000.0001) //      Min. barrier spins =              1
(PID.TID 0000.0001) //     Total barrier spins =          10320
(PID.TID 0000.0001) //      Avg. barrier spins =       1.00E+00
