(PID.TID 0000.0001) 
(PID.TID 0000.0001) // ======================================================
(PID.TID 0000.0001) //                      MITgcm UV
(PID.TID 0000.0001) //                      =========
(PID.TID 0000.0001) // ======================================================
(PID.TID 0000.0001) // execution environment starting up...
(PID.TID 0000.0001) // Run starting Wed Apr  1 14:19:48 1998
(PID.TID 0000.0001) // on melville.lcs.mit.edu
(PID.TID 0000.0001) // account cnh
(PID.TID 0000.0001) // MITgcm UV Release: $Name:  $
(PID.TID 0000.0001) 
(PID.TID 0000.0001) // =======================================================
(PID.TID 0000.0001) // Execution Environment parameter file "eedata"
(PID.TID 0000.0001) // =======================================================
(PID.TID 0000.0001) ># Example "eedata" file
(PID.TID 0000.0001) ># Lines beginning "#" are comments
(PID.TID 0000.0001) ># nTx - No. threads per process in X
(PID.TID 0000.0001) ># nTy - No. threads per process in Y
(PID.TID 0000.0001) > &EEPARMS
(PID.TID 0000.0001) > nTx=1,nTy=1
(PID.TID 0000.0001) > &
(PID.TID 0000.0001) ># Note: Some systems use & as the
(PID.TID 0000.0001) ># namelist terminator. Other systems
(PID.TID 0000.0001) ># use a / character (as shown here).
(PID.TID 0000.0001) 
(PID.TID 0000.0001) // =======================================================
(PID.TID 0000.0001) // Computational Grid Specification ( see files "SIZE.h" )
(PID.TID 0000.0001) //                                  ( and "eedata"       )
(PID.TID 0000.0001) // =======================================================
(PID.TID 0000.0001)      nPx =    1 ; /* No. processes in X */
(PID.TID 0000.0001)      nPy =    1 ; /* No. processes in Y */
(PID.TID 0000.0001)      nSx =    1 ; /* No. tiles in X per process */
(PID.TID 0000.0001)      nSy =    1 ; /* No. tiles in Y per process */
(PID.TID 0000.0001)      sNx =   20 ; /* Tile size in X */
(PID.TID 0000.0001)      sNy =   16 ; /* Tile size in Y */
(PID.TID 0000.0001)      OLx =    4 ; /* Tile overlap distance in X */
(PID.TID 0000.0001)      OLy =    4 ; /* Tile overlap distance in Y */
(PID.TID 0000.0001)      nTx =    1 ; /* No. threads in X per process */
(PID.TID 0000.0001)      nTy =    1 ; /* No. threads in Y per process */
(PID.TID 0000.0001)       Nr =   23 ; /* No. levels in the vertical   */
(PID.TID 0000.0001)       nX =   20 ; /* Total domain size in X ( = nPx*nSx*sNx ) */
(PID.TID 0000.0001)       nY =   16 ; /* Total domain size in Y ( = nPy*nSy*sNy ) */
(PID.TID 0000.0001)   nTiles =    1 ; /* Total no. tiles per process ( = nSx*nSy ) */
(PID.TID 0000.0001)   nProcs =    1 ; /* Total no. processes ( = nPx*nPy ) */
(PID.TID 0000.0001) nThreads =    1 ; /* Total no. threads per process ( = nTx*nTy ) */
(PID.TID 0000.0001) usingMPI =    F ; /* Flag used to control whether MPI is in use */
(PID.TID 0000.0001)                   /*  note: To execute a program with MPI calls */
(PID.TID 0000.0001)                   /*  it must be launched appropriately e.g     */
(PID.TID 0000.0001)                   /*  "mpirun -np 64 ......"                    */
(PID.TID 0000.0001) 
(PID.TID 0000.0001) // ======================================================
(PID.TID 0000.0001) // Mapping of tiles to threads
(PID.TID 0000.0001) // ======================================================
(PID.TID 0000.0001) // -o- Thread   1, tiles (   1:   1,   1:   1)
(PID.TID 0000.0001) 
(PID.TID 0000.0001) // ======================================================
(PID.TID 0000.0001) // Tile <-> Tile connectvity table
(PID.TID 0000.0001) // ======================================================
(PID.TID 0000.0001) // Tile number: 000001 (process no. = 000001)
(PID.TID 0000.0001) //        WEST: Tile = 000001, Process = 000001, Comm = put
(PID.TID 0000.0001) //                bi = 000001, bj = 000001
(PID.TID 0000.0001) //        EAST: Tile = 000001, Process = 000001, Comm = put
(PID.TID 0000.0001) //                bi = 000001, bj = 000001
(PID.TID 0000.0001) //       SOUTH: Tile = 000001, Process = 000001, Comm = put
(PID.TID 0000.0001) //                bi = 000001, bj = 000001
(PID.TID 0000.0001) //       NORTH: Tile = 000001, Process = 000001, Comm = put
(PID.TID 0000.0001) //                bi = 000001, bj = 000001
(PID.TID 0000.0001) 
(PID.TID 0000.0001) // =======================================================
(PID.TID 0000.0001) // Model parameter file "data"
(PID.TID 0000.0001) // =======================================================
(PID.TID 0000.0001) ># ====================
(PID.TID 0000.0001) ># | Model parameters |
(PID.TID 0000.0001) ># ====================
(PID.TID 0000.0001) >#
(PID.TID 0000.0001) ># Continuous equation parameters
(PID.TID 0000.0001) >#
(PID.TID 0000.0001) >#   tRef            - Reference vertical potential temperature          (deg C)
(PID.TID 0000.0001) >#   sRef            - Reference vertical salinity                         (PSU)
(PID.TID 0000.0001) >#   viscAh          - Horizontal eddy viscosity coefficient             (m^2/s)
(PID.TID 0000.0001) >#   viscAz          - Vertical eddy viscosity coefficient               (m^2/s)
(PID.TID 0000.0001) >#   diffKhT         - Horizontal temperature diffusivity                (m^2/s)
(PID.TID 0000.0001) >#   diffKzT         - Vertical temperature diffusivity                  (m^2/s)
(PID.TID 0000.0001) >#   diffKhS         - Horizontal salt diffusivity                       (m^2/s)
(PID.TID 0000.0001) >#   diffKzS         - Vertical salt diffusivity                         (m^2/s)
(PID.TID 0000.0001) >#   f0              - Reference coriolis parameter,
(PID.TID 0000.0001) >#                     south edge of f on beta plane                       (1/s)
(PID.TID 0000.0001) >#   beta            - df/dy                                         (s^-1.m^-1)
(PID.TID 0000.0001) >#   tAlpha          - Linear EOS thermal expansion coefficient           (1/oC)
(PID.TID 0000.0001) >#   sBeta           - Linear EOS haline contraction coefficient         (1/ppt)
(PID.TID 0000.0001) >#   gravity         - Acceleration due to gravity                       (m/s^2)
(PID.TID 0000.0001) >#   gBaro           - Accel. due to gravity used in barotropic equation (m/s^2)
(PID.TID 0000.0001) >#   rigidLid        - Set to true to use rigid lid
(PID.TID 0000.0001) >#   implicitFreeSurface - Set to true to use implicit free surface
(PID.TID 0000.0001) >#   eosType         - Flag for linear or polynomial equation of state
(PID.TID 0000.0001) >#   GMkbackground   - background value of GM/Redi coefficient
(PID.TID 0000.0001) >#   momAdvection    - On/Off flag for momentum self transport
(PID.TID 0000.0001) >#   momViscosity    - On/Off flag for momentum mixing
(PID.TID 0000.0001) >#
(PID.TID 0000.0001) > &PARM01
(PID.TID 0000.0001) > viscAz             = 1.E-3,
(PID.TID 0000.0001) > diffKzT            = 1.E-5,
(PID.TID 0000.0001) > diffKzS            = 1.E-5,
(PID.TID 0000.0001) > viscAh             = 5.0E4,
(PID.TID 0000.0001) > viscA4             = 5.e12,
(PID.TID 0000.0001) > diffKhT            = 1.0E3,
(PID.TID 0000.0001) > diffKhS            = 1.0E3,
(PID.TID 0000.0001) > f0                 = 1.e-4,
(PID.TID 0000.0001) > beta               = 1.E-11,
(PID.TID 0000.0001) > tAlpha             = 2.E-4,
(PID.TID 0000.0001) > sBeta              = 7.4E-4,
(PID.TID 0000.0001) > gravity            = 9.81,
(PID.TID 0000.0001) > gBaro              = 9.81,
(PID.TID 0000.0001) > rigidLid           = .FALSE.,
(PID.TID 0000.0001) > implicitFreeSurface= .TRUE.,
(PID.TID 0000.0001) > implicitDiffusion  = .TRUE.,
(PID.TID 0000.0001) > eosType            = 'POLY3',
(PID.TID 0000.0001) > momAdvection       = .TRUE.,
(PID.TID 0000.0001) > momViscosity       = .TRUE.,
(PID.TID 0000.0001) > implicitDiffusion  = .TRUE.,
(PID.TID 0000.0001) > implicitViscosity  = .TRUE.,
(PID.TID 0000.0001) > no_slip_bottom     = .TRUE.,
(PID.TID 0000.0001) > no_slip_sides      = .FALSE.,
(PID.TID 0000.0001) > readBinaryPrec     = 32,
(PID.TID 0000.0001) > &
(PID.TID 0000.0001) >
(PID.TID 0000.0001) ># Elliptic solver parameters
(PID.TID 0000.0001) >#
(PID.TID 0000.0001) >#   cg2dMaxIters       - Maximum number of 2d solver iterations
(PID.TID 0000.0001) >#   cg2dTargetResidual - Solver target residual
(PID.TID 0000.0001) >#
(PID.TID 0000.0001) > &PARM02
(PID.TID 0000.0001) > cg2dMaxIters       = 1000,
(PID.TID 0000.0001) > cg2dTargetResidual = 1.E-13,
(PID.TID 0000.0001) > &
(PID.TID 0000.0001) >
(PID.TID 0000.0001) ># Time stepping parameters
(PID.TID 0000.0001) >#
(PID.TID 0000.0001) >#   startTime         - Integration starting time                (s)
(PID.TID 0000.0001) >#   endTime           - Integration ending time                  (s)
(PID.TID 0000.0001) >#   tauCD             - CD scheme coupling timescale             (s)
(PID.TID 0000.0001) >#   deltaTMom         - Timestep for momemtum equations          (s)
(PID.TID 0000.0001) >#   deltaTtracer      - Tracer timestep                          (s)
(PID.TID 0000.0001) >#   deltaTClock       - Timestep used as model "clock"           (s)
(PID.TID 0000.0001) >#   abEps             - Adams-Bashforth stabilising factor
(PID.TID 0000.0001) >#   pChkPtFreq        - Frequency of permanent check pointing    (s)
(PID.TID 0000.0001) >#   chkPtFreq         - Frequency of rolling check pointing      (s)
(PID.TID 0000.0001) >#   dumpFreq          - Frequency at which model state is stored (s)
(PID.TID 0000.0001) >#   tauThetaClimRelax - Relaxation to climatology time scale     (s)
(PID.TID 0000.0001) >#   tauSaltClimRelax  - Relaxation to climatology time scale     (s)
(PID.TID 0000.0001) >#
(PID.TID 0000.0001) > &PARM03
(PID.TID 0000.0001) > startTime  = 0.0,
(PID.TID 0000.0001) > endTime    = 72000.0,
(PID.TID 0000.0001) > deltaTmom  = 3600.0,
(PID.TID 0000.0001) > TauCD      = 172800.
(PID.TID 0000.0001) > cAdjFreq   = 0.,
(PID.TID 0000.0001) > abEps      = 0.1,
(PID.TID 0000.0001) > pChkptFreq = 0.0,
(PID.TID 0000.0001) > chkptFreq  = 0.0,
(PID.TID 0000.0001) > dumpFreq   = 864000.0,
(PID.TID 0000.0001) > tauSaltClimRelax = 2592000.0,
(PID.TID 0000.0001) > tauThetaClimRelax = 2592000.0,
(PID.TID 0000.0001) > periodicExternalForcing = .TRUE.,
(PID.TID 0000.0001) > externForcingPeriod = 43200.0,
(PID.TID 0000.0001) > externForcingCycle = 2764800.0,
(PID.TID 0000.0001) > monitorFreq=1.,
(PID.TID 0000.0001) > &
(PID.TID 0000.0001) >
(PID.TID 0000.0001) ># Gridding parameters
(PID.TID 0000.0001) >#
(PID.TID 0000.0001) >#   usingSphericalPolarGrid - On/Off flag for spherical polar coordinates
(PID.TID 0000.0001) >#   usingCartesianGrid      - On/Off flag for selecting cartesian coordinates
(PID.TID 0000.0001) >#   delX                    - Zonal grid spacing         (degrees)
(PID.TID 0000.0001) >#   delY                    - Meridional grid spacing    (degrees)
(PID.TID 0000.0001) >#   delZ                    - Vertical grid spacing      (m)
(PID.TID 0000.0001) >#   phiMin                  - Southern boundary latitude (degrees)
(PID.TID 0000.0001) >#
(PID.TID 0000.0001) > &PARM04
(PID.TID 0000.0001) > usingCartesianGrid      = .FALSE.,
(PID.TID 0000.0001) > usingSphericalPolarGrid = .TRUE.,
(PID.TID 0000.0001) > delX   = 20*2.,
(PID.TID 0000.0001) > delY   = 16*2.,
(PID.TID 0000.0001) > delZ= 10., 10., 15., 20., 20., 25., 35., 50., 75.,
(PID.TID 0000.0001) >       100., 150., 200., 275., 350., 415., 450.,
(PID.TID 0000.0001) >       500., 500., 500., 500., 500., 500., 500.
(PID.TID 0000.0001) > phiMin = 10.,
(PID.TID 0000.0001) > thetaMin= -42.
(PID.TID 0000.0001) > &
(PID.TID 0000.0001) >
(PID.TID 0000.0001) ># Input datasets
(PID.TID 0000.0001) >#
(PID.TID 0000.0001) >#   bathyFile       - File containing bathymetry
(PID.TID 0000.0001) >#   hydrogThetaFile - File containing initial potential temperature data
(PID.TID 0000.0001) >#   hydrogSaltFile  - File containing initial salinity data
(PID.TID 0000.0001) >#   zonalWindFile   - File containing zonal wind data
(PID.TID 0000.0001) >#   meridWindFile   - File containing meridional wind data
(PID.TID 0000.0001) >#   thetaClimFile   - File containing theta climatology used for relaxation
(PID.TID 0000.0001) >#   saltClimFile    - File containing salt climatology used for relaxation
(PID.TID 0000.0001) >#
(PID.TID 0000.0001) > &PARM05
(PID.TID 0000.0001) > bathyFile       = 'kf_topog',
(PID.TID 0000.0001) > hydrogThetaFile = 'kf_climtheta',
(PID.TID 0000.0001) > hydrogSaltFile  = 'kf_climsalt',
(PID.TID 0000.0001) > zonalWindFile   = 'kf_fu',
(PID.TID 0000.0001) > meridWindFile   = 'kf_fv',
(PID.TID 0000.0001) > thetaClimFile   = 'kf_sst',
(PID.TID 0000.0001) > saltClimFile    = 'kf_sss',
(PID.TID 0000.0001) > surfQFile       = 'kf_qnet',
(PID.TID 0000.0001) > EmPmRFile       = 'kf_empmr',
(PID.TID 0000.0001) > surfQswFile     = 'kf_sw',
(PID.TID 0000.0001) > &
(PID.TID 0000.0001) 
(PID.TID 0000.0001) S/R INI_PARMS ; read PARM01 : OK
(PID.TID 0000.0001) S/R INI_PARMS ; read PARM02 : OK
(PID.TID 0000.0001) S/R INI_PARMS ; read PARM03 : OK
(PID.TID 0000.0001) S/R INI_PARMS ; read PARM04 : OK
(PID.TID 0000.0001) S/R INI_PARMS ; read PARM05 : OK
(PID.TID 0000.0001) %MON XC_max                       =  -3.0000000000000E+00
(PID.TID 0000.0001) %MON XC_min                       =  -4.1000000000000E+01
(PID.TID 0000.0001) %MON XC_mean                      =  -2.2000000000000E+01
(PID.TID 0000.0001) %MON XC_sd                        =   1.1532562594671E+01
(PID.TID 0000.0001) %MON XG_max                       =  -4.0000000000000E+00
(PID.TID 0000.0001) %MON XG_min                       =  -4.2000000000000E+01
(PID.TID 0000.0001) %MON XG_mean                      =  -2.3000000000000E+01
(PID.TID 0000.0001) %MON XG_sd                        =   1.1532562594671E+01
(PID.TID 0000.0001) %MON DXC_max                      =   2.1826966005878E+05
(PID.TID 0000.0001) %MON DXC_min                      =   1.6781340848749E+05
(PID.TID 0000.0001) %MON DXC_mean                     =   1.9727395728441E+05
(PID.TID 0000.0001) %MON DXC_sd                       =   1.5731168072696E+04
(PID.TID 0000.0001) %MON DXF_max                      =   2.1826966005878E+05
(PID.TID 0000.0001) %MON DXF_min                      =   1.6781340848749E+05
(PID.TID 0000.0001) %MON DXF_mean                     =   1.9727395728441E+05
(PID.TID 0000.0001) %MON DXF_sd                       =   1.5731168072696E+04
(PID.TID 0000.0001) %MON DXG_max                      =   2.1897687543479E+05
(PID.TID 0000.0001) %MON DXG_min                      =   1.7033377132268E+05
(PID.TID 0000.0001) %MON DXG_mean                     =   1.9892312861058E+05
(PID.TID 0000.0001) %MON DXG_sd                       =   1.5180938630473E+04
(PID.TID 0000.0001) %MON DXV_max                      =   2.1897687543479E+05
(PID.TID 0000.0001) %MON DXV_min                      =   1.7033377132268E+05
(PID.TID 0000.0001) %MON DXV_mean                     =   1.9892312861058E+05
(PID.TID 0000.0001) %MON DXV_sd                       =   1.5180938630473E+04
(PID.TID 0000.0001) %MON YC_max                       =   4.1000000000000E+01
(PID.TID 0000.0001) %MON YC_min                       =   1.1000000000000E+01
(PID.TID 0000.0001) %MON YC_mean                      =   2.6000000000000E+01
(PID.TID 0000.0001) %MON YC_sd                        =   9.2195444572929E+00
(PID.TID 0000.0001) %MON YG_max                       =   4.0000000000000E+01
(PID.TID 0000.0001) %MON YG_min                       =   1.0000000000000E+01
(PID.TID 0000.0001) %MON YG_mean                      =   2.5000000000000E+01
(PID.TID 0000.0001) %MON YG_sd                        =   9.2195444572929E+00
(PID.TID 0000.0001) %MON DYC_max                      =   2.2235494670408E+05
(PID.TID 0000.0001) %MON DYC_min                      =   2.2235494670408E+05
(PID.TID 0000.0001) %MON DYC_mean                     =   2.2235494670408E+05
(PID.TID 0000.0001) %MON DYC_sd                       =   1.1641532182693E-09
(PID.TID 0000.0001) %MON DYF_max                      =   2.2235494670408E+05
(PID.TID 0000.0001) %MON DYF_min                      =   2.2235494670408E+05
(PID.TID 0000.0001) %MON DYF_mean                     =   2.2235494670408E+05
(PID.TID 0000.0001) %MON DYF_sd                       =   1.1641532182693E-09
(PID.TID 0000.0001) %MON DYG_max                      =   2.2235494670408E+05
(PID.TID 0000.0001) %MON DYG_min                      =   2.2235494670408E+05
(PID.TID 0000.0001) %MON DYG_mean                     =   2.2235494670408E+05
(PID.TID 0000.0001) %MON DYG_sd                       =   1.1641532182693E-09
(PID.TID 0000.0001) %MON DYU_max                      =   2.2235494670408E+05
(PID.TID 0000.0001) %MON DYU_min                      =   2.2235494670408E+05
(PID.TID 0000.0001) %MON DYU_mean                     =   2.2235494670408E+05
(PID.TID 0000.0001) %MON DYU_sd                       =   1.1641532182693E-09
(PID.TID 0000.0001) %MON RA_max                       =   4.8530874650285E+10
(PID.TID 0000.0001) %MON RA_min                       =   3.7312247106402E+10
(PID.TID 0000.0001) %MON RA_mean                      =   4.3862613292919E+10
(PID.TID 0000.0001) %MON RA_sd                        =   3.4977254540690E+09
(PID.TID 0000.0001) %MON RAW_max                      =   4.8530874650285E+10
(PID.TID 0000.0001) %MON RAW_min                      =   3.7312247106402E+10
(PID.TID 0000.0001) %MON RAW_mean                     =   4.3862613292919E+10
(PID.TID 0000.0001) %MON RAW_sd                       =   3.4977254540690E+09
(PID.TID 0000.0001) %MON RAS_max                      =   4.8688119503989E+10
(PID.TID 0000.0001) %MON RAS_min                      =   3.7872633798691E+10
(PID.TID 0000.0001) %MON RAS_mean                     =   4.4229296078267E+10
(PID.TID 0000.0001) %MON RAS_sd                       =   3.3753854271397E+09
(PID.TID 0000.0001) %MON RAZ_max                      =   4.8688119503989E+10
(PID.TID 0000.0001) %MON RAZ_min                      =   3.7872633798691E+10
(PID.TID 0000.0001) %MON RAZ_mean                     =   4.4229296078267E+10
(PID.TID 0000.0001) %MON RAZ_sd                       =   3.3753854271397E+09
(PID.TID 0000.0001)  MDSREADFIELD: opening global file: kf_topog
(PID.TID 0000.0001) // =======================================================
(PID.TID 0000.0001) // Field Model R_low (ini_masks_etc) at iteration          1
(PID.TID 0000.0001) // CMIN =         -5.200000000000000E+03
(PID.TID 0000.0001) // CMAX =         -3.600000000000000E+02
(PID.TID 0000.0001) // CINT =          1.792592592592593E+02
(PID.TID 0000.0001) // SYMBOLS (CMIN->CMAX): -abcdefghijklmnopqrstuvwxyz+
(PID.TID 0000.0001) //                  0.0: .
(PID.TID 0000.0001) // RANGE I (Lo:Hi:Step):(  -3:  24:   1)
(PID.TID 0000.0001) // RANGE J (Lo:Hi:Step):(  20:  -3:  -1)
(PID.TID 0000.0001) // RANGE K (Lo:Hi:Step):(   1:   1:   1)
(PID.TID 0000.0001) // =======================================================
(PID.TID 0000.0001) K =   1
(PID.TID 0000.0001) //                I=6       I=16
(PID.TID 0000.0001) // |--J--|***012345|789012345|78901234
(PID.TID 0000.0001) //     20 .....cc-----cfkhkz.......cc-
(PID.TID 0000.0001) //     19 .....c-------cccfy.......c--
(PID.TID 0000.0001) //     18 .....hcc------ccfx.......hcc
(PID.TID 0000.0001) //     17 ............................
(PID.TID 0000.0001) //     16 ............................
(PID.TID 0000.0001) //     15 hv+..fhknsqknnff-ckhhv+..fhk
(PID.TID 0000.0001) //     14 fhx..hknnnnkhcc-chhhfhx..hkn
(PID.TID 0000.0001) //     13 fz...knnkhknf--chkfffz...knn
(PID.TID 0000.0001) //     12 q....nkhfffhc--cffhnq....nkh
(PID.TID 0000.0001) //     11 +....khfccccc-ccfkkv+....khf
(PID.TID 0000.0001) //     10 .....hcc---cc-cfhks......hcc
(PID.TID 0000.0001) //      9 .....fc-------cfkq.......fc-
(PID.TID 0000.0001) //      8 .....c-------ccfkx.......c--
(PID.TID 0000.0001) //      7 .....c---cfcccfhk+.......c--
(PID.TID 0000.0001) //      6 .....c---cccffhknv.......c--
(PID.TID 0000.0001) //      5 .....c--ccccfkkkkq.......c--
(PID.TID 0000.0001) //      4 .....cc-----cfkhkz.......cc-
(PID.TID 0000.0001) //      3 .....c-------cccfy.......c--
(PID.TID 0000.0001) //      2 .....hcc------ccfx.......hcc
(PID.TID 0000.0001) //      1 ............................
(PID.TID 0000.0001) //      0 ............................
(PID.TID 0000.0001) //     -1 hv+..fhknsqknnff-ckhhv+..fhk
(PID.TID 0000.0001) //     -2 fhx..hknnnnkhcc-chhhfhx..hkn
(PID.TID 0000.0001) //     -3 fz...knnkhknf--chkfffz...knn
(PID.TID 0000.0001) // =======================================================
(PID.TID 0000.0001) // END OF FIELD                                          =
(PID.TID 0000.0001) // =======================================================
(PID.TID 0000.0001) 
(PID.TID 0000.0001) // =======================================================
(PID.TID 0000.0001) // Field Model Ro_surf (ini_masks_etc) at iteration          1
(PID.TID 0000.0001) // CMIN =          1.000000000000000E+32
(PID.TID 0000.0001) // CMAX =         -1.000000000000000E+32
(PID.TID 0000.0001) // CINT =          0.000000000000000E+00
(PID.TID 0000.0001) // SYMBOLS (CMIN->CMAX): -abcdefghijklmnopqrstuvwxyz+
(PID.TID 0000.0001) //                  0.0: .
(PID.TID 0000.0001) // RANGE I (Lo:Hi:Step):(  -3:  24:   1)
(PID.TID 0000.0001) // RANGE J (Lo:Hi:Step):(  20:  -3:  -1)
(PID.TID 0000.0001) // RANGE K (Lo:Hi:Step):(   1:   1:   1)
(PID.TID 0000.0001) // =======================================================
(PID.TID 0000.0001) K =   1
(PID.TID 0000.0001) //                I=6       I=16
(PID.TID 0000.0001) // |--J--|***012345|789012345|78901234
(PID.TID 0000.0001) //     20 ............................
(PID.TID 0000.0001) //     19 ............................
(PID.TID 0000.0001) //     18 ............................
(PID.TID 0000.0001) //     17 ............................
(PID.TID 0000.0001) //     16 ............................
(PID.TID 0000.0001) //     15 ............................
(PID.TID 0000.0001) //     14 ............................
(PID.TID 0000.0001) //     13 ............................
(PID.TID 0000.0001) //     12 ............................
(PID.TID 0000.0001) //     11 ............................
(PID.TID 0000.0001) //     10 ............................
(PID.TID 0000.0001) //      9 ............................
(PID.TID 0000.0001) //      8 ............................
(PID.TID 0000.0001) //      7 ............................
(PID.TID 0000.0001) //      6 ............................
(PID.TID 0000.0001) //      5 ............................
(PID.TID 0000.0001) //      4 ............................
(PID.TID 0000.0001) //      3 ............................
(PID.TID 0000.0001) //      2 ............................
(PID.TID 0000.0001) //      1 ............................
(PID.TID 0000.0001) //      0 ............................
(PID.TID 0000.0001) //     -1 ............................
(PID.TID 0000.0001) //     -2 ............................
(PID.TID 0000.0001) //     -3 ............................
(PID.TID 0000.0001) // =======================================================
(PID.TID 0000.0001) // END OF FIELD                                          =
(PID.TID 0000.0001) // =======================================================
(PID.TID 0000.0001) 
(PID.TID 0000.0001) // =======================================================
(PID.TID 0000.0001) // Field hFacC at iteration          1
(PID.TID 0000.0001) // CMIN =          1.000000000000000E+00
(PID.TID 0000.0001) // CMAX =          1.000000000000000E+00
(PID.TID 0000.0001) // CINT =          0.000000000000000E+00
(PID.TID 0000.0001) // SYMBOLS (CMIN->CMAX): -abcdefghijklmnopqrstuvwxyz+
(PID.TID 0000.0001) //                  0.0: .
(PID.TID 0000.0001) // RANGE I (Lo:Hi:Step):(  -3:  24:   1)
(PID.TID 0000.0001) // RANGE J (Lo:Hi:Step):(  20:  -3:  -1)
(PID.TID 0000.0001) // RANGE K (Lo:Hi:Step):(   1:   1:   1)
(PID.TID 0000.0001) // =======================================================
(PID.TID 0000.0001) K =   1
(PID.TID 0000.0001) //                I=6       I=16
(PID.TID 0000.0001) // |--J--|***012345|789012345|78901234
(PID.TID 0000.0001) //     20 .....-------------.......---
(PID.TID 0000.0001) //     19 .....-------------.......---
(PID.TID 0000.0001) //     18 .....-------------.......---
(PID.TID 0000.0001) //     17 ............................
(PID.TID 0000.0001) //     16 ............................
(PID.TID 0000.0001) //     15 ---..------------------..---
(PID.TID 0000.0001) //     14 ---..------------------..---
(PID.TID 0000.0001) //     13 --...-----------------...---
(PID.TID 0000.0001) //     12 -....----------------....---
(PID.TID 0000.0001) //     11 -....----------------....---
(PID.TID 0000.0001) //     10 .....--------------......---
(PID.TID 0000.0001) //      9 .....-------------.......---
(PID.TID 0000.0001) //      8 .....-------------.......---
(PID.TID 0000.0001) //      7 .....-------------.......---
(PID.TID 0000.0001) //      6 .....-------------.......---
(PID.TID 0000.0001) //      5 .....-------------.......---
(PID.TID 0000.0001) //      4 .....-------------.......---
(PID.TID 0000.0001) //      3 .....-------------.......---
(PID.TID 0000.0001) //      2 .....-------------.......---
(PID.TID 0000.0001) //      1 ............................
(PID.TID 0000.0001) //      0 ............................
(PID.TID 0000.0001) //     -1 ---..------------------..---
(PID.TID 0000.0001) //     -2 ---..------------------..---
(PID.TID 0000.0001) //     -3 --...-----------------...---
(PID.TID 0000.0001) // =======================================================
(PID.TID 0000.0001) // END OF FIELD                                          =
(PID.TID 0000.0001) // =======================================================
(PID.TID 0000.0001) 
(PID.TID 0000.0001) // =======================================================
(PID.TID 0000.0001) // Field hFacW at iteration          1
(PID.TID 0000.0001) // CMIN =          1.000000000000000E+00
(PID.TID 0000.0001) // CMAX =          1.000000000000000E+00
(PID.TID 0000.0001) // CINT =          0.000000000000000E+00
(PID.TID 0000.0001) // SYMBOLS (CMIN->CMAX): -abcdefghijklmnopqrstuvwxyz+
(PID.TID 0000.0001) //                  0.0: .
(PID.TID 0000.0001) // RANGE I (Lo:Hi:Step):(  -3:  24:   1)
(PID.TID 0000.0001) // RANGE J (Lo:Hi:Step):(  20:  -3:  -1)
(PID.TID 0000.0001) // RANGE K (Lo:Hi:Step):(   1:   1:   1)
(PID.TID 0000.0001) // =======================================================
(PID.TID 0000.0001) K =   1
(PID.TID 0000.0001) //                I=6       I=16
(PID.TID 0000.0001) // |--J--|***012345|789012345|78901234
(PID.TID 0000.0001) //     20 ......------------........--
(PID.TID 0000.0001) //     19 ......------------........--
(PID.TID 0000.0001) //     18 ......------------........--
(PID.TID 0000.0001) //     17 ............................
(PID.TID 0000.0001) //     16 ............................
(PID.TID 0000.0001) //     15 ---...-----------------...--
(PID.TID 0000.0001) //     14 ---...-----------------...--
(PID.TID 0000.0001) //     13 --....----------------....--
(PID.TID 0000.0001) //     12 -.....---------------.....--
(PID.TID 0000.0001) //     11 -.....---------------.....--
(PID.TID 0000.0001) //     10 ......-------------.......--
(PID.TID 0000.0001) //      9 ......------------........--
(PID.TID 0000.0001) //      8 ......------------........--
(PID.TID 0000.0001) //      7 ......------------........--
(PID.TID 0000.0001) //      6 ......------------........--
(PID.TID 0000.0001) //      5 ......------------........--
(PID.TID 0000.0001) //      4 ......------------........--
(PID.TID 0000.0001) //      3 ......------------........--
(PID.TID 0000.0001) //      2 ......------------........--
(PID.TID 0000.0001) //      1 ............................
(PID.TID 0000.0001) //      0 ............................
(PID.TID 0000.0001) //     -1 ---...-----------------...--
(PID.TID 0000.0001) //     -2 ---...-----------------...--
(PID.TID 0000.0001) //     -3 --....----------------....--
(PID.TID 0000.0001) // =======================================================
(PID.TID 0000.0001) // END OF FIELD                                          =
(PID.TID 0000.0001) // =======================================================
(PID.TID 0000.0001) 
(PID.TID 0000.0001) // =======================================================
(PID.TID 0000.0001) // Field hFacS at iteration          1
(PID.TID 0000.0001) // CMIN =          1.000000000000000E+00
(PID.TID 0000.0001) // CMAX =          1.000000000000000E+00
(PID.TID 0000.0001) // CINT =          0.000000000000000E+00
(PID.TID 0000.0001) // SYMBOLS (CMIN->CMAX): -abcdefghijklmnopqrstuvwxyz+
(PID.TID 0000.0001) //                  0.0: .
(PID.TID 0000.0001) // RANGE I (Lo:Hi:Step):(  -3:  24:   1)
(PID.TID 0000.0001) // RANGE J (Lo:Hi:Step):(  20:  -3:  -1)
(PID.TID 0000.0001) // RANGE K (Lo:Hi:Step):(   1:   1:   1)
(PID.TID 0000.0001) // =======================================================
(PID.TID 0000.0001) K =   1
(PID.TID 0000.0001) //                I=6       I=16
(PID.TID 0000.0001) // |--J--|***012345|789012345|78901234
(PID.TID 0000.0001) //     20 .....-------------.......---
(PID.TID 0000.0001) //     19 .....-------------.......---
(PID.TID 0000.0001) //     18 ............................
(PID.TID 0000.0001) //     17 ............................
(PID.TID 0000.0001) //     16 ............................
(PID.TID 0000.0001) //     15 ---..------------------..---
(PID.TID 0000.0001) //     14 --...-----------------...---
(PID.TID 0000.0001) //     13 -....----------------....---
(PID.TID 0000.0001) //     12 -....----------------....---
(PID.TID 0000.0001) //     11 .....--------------......---
(PID.TID 0000.0001) //     10 .....-------------.......---
(PID.TID 0000.0001) //      9 .....-------------.......---
(PID.TID 0000.0001) //      8 .....-------------.......---
(PID.TID 0000.0001) //      7 .....-------------.......---
(PID.TID 0000.0001) //      6 .....-------------.......---
(PID.TID 0000.0001) //      5 .....-------------.......---
(PID.TID 0000.0001) //      4 .....-------------.......---
(PID.TID 0000.0001) //      3 .....-------------.......---
(PID.TID 0000.0001) //      2 ............................
(PID.TID 0000.0001) //      1 ............................
(PID.TID 0000.0001) //      0 ............................
(PID.TID 0000.0001) //     -1 ---..------------------..---
(PID.TID 0000.0001) //     -2 --...-----------------...---
(PID.TID 0000.0001) //     -3 -....----------------....---
(PID.TID 0000.0001) // =======================================================
(PID.TID 0000.0001) // END OF FIELD                                          =
(PID.TID 0000.0001) // =======================================================
(PID.TID 0000.0001) 
(PID.TID 0000.0001) %MON fCori_max                    =   9.5419917861011E-05
(PID.TID 0000.0001) %MON fCori_min                    =   2.7752043431195E-05
(PID.TID 0000.0001) %MON fCori_mean                   =   6.2936249243167E-05
(PID.TID 0000.0001) %MON fCori_sd                     =   2.0885809702547E-05
(PID.TID 0000.0001) %MON fCoriG_max                   =   9.3489668167119E-05
(PID.TID 0000.0001) %MON fCoriG_min                   =   2.5256103669800E-05
(PID.TID 0000.0001) %MON fCoriG_mean                  =   6.0674632558389E-05
(PID.TID 0000.0001) %MON fCoriG_sd                    =   2.1059305790472E-05
(PID.TID 0000.0001)  PACKAGES_BOOT: opening data.pkg
(PID.TID 0000.0001)  OPEN_COPY_DATA_FILE: opening file data.pkg
(PID.TID 0000.0001) // =======================================================
(PID.TID 0000.0001) // Parameter file "data.pkg"
(PID.TID 0000.0001) // =======================================================
(PID.TID 0000.0001) ># Packages
(PID.TID 0000.0001) > &PACKAGES
(PID.TID 0000.0001) >  useGMRedi=.FALSE.,
(PID.TID 0000.0001) >  useKPP=.TRUE.,
(PID.TID 0000.0001) >  useECCO=.FALSE.,
(PID.TID 0000.0001) > &
(PID.TID 0000.0001) 
(PID.TID 0000.0001)  PACKAGES_BOOT: finished reading data.pkg
(PID.TID 0000.0001)  KPP_INIT: opening data.kpp
(PID.TID 0000.0001)  OPEN_COPY_DATA_FILE: opening file data.kpp
(PID.TID 0000.0001) // =======================================================
(PID.TID 0000.0001) // Parameter file "data.kpp"
(PID.TID 0000.0001) // =======================================================
(PID.TID 0000.0001) ># KPP parameters
(PID.TID 0000.0001) > &KPP_PARM01
(PID.TID 0000.0001) > KPPmixingMaps   = .FALSE.,
(PID.TID 0000.0001) > KPPwriteState   = .TRUE.,
(PID.TID 0000.0001) > kpp_dumpFreq    = 864000.0
(PID.TID 0000.0001) > &
(PID.TID 0000.0001) 
(PID.TID 0000.0001)  KPP_INIT: finished reading data.kpp
(PID.TID 0000.0001) KPP_CHECK: #define ALLOW_KPP
(PID.TID 0000.0001) // CG2D normalisation factor =          0.1575292392863445389492028E-03
(PID.TID 0000.0001) 
(PID.TID 0000.0001) CONFIG_CHECK: OK
(PID.TID 0000.0001) // =======================================================
(PID.TID 0000.0001) // Model configuration
(PID.TID 0000.0001) // =======================================================
(PID.TID 0000.0001) //
(PID.TID 0000.0001) // "Physical" paramters ( PARM01 in namelist )
(PID.TID 0000.0001) //
(PID.TID 0000.0001) tRef =   /* Reference temperature profile ( oC or oK ) */
(PID.TID 0000.0001)                 2.900000000000000E+01,      /* K =  1 */
(PID.TID 0000.0001)                 2.800000000000000E+01,      /* K =  2 */
(PID.TID 0000.0001)                 2.700000000000000E+01,      /* K =  3 */
(PID.TID 0000.0001)                 2.600000000000000E+01,      /* K =  4 */
(PID.TID 0000.0001)                 2.500000000000000E+01,      /* K =  5 */
(PID.TID 0000.0001)                 2.400000000000000E+01,      /* K =  6 */
(PID.TID 0000.0001)                 2.300000000000000E+01,      /* K =  7 */
(PID.TID 0000.0001)                 2.200000000000000E+01,      /* K =  8 */
(PID.TID 0000.0001)                 2.100000000000000E+01,      /* K =  9 */
(PID.TID 0000.0001)                 2.000000000000000E+01,      /* K = 10 */
(PID.TID 0000.0001)                 1.900000000000000E+01,      /* K = 11 */
(PID.TID 0000.0001)                 1.800000000000000E+01,      /* K = 12 */
(PID.TID 0000.0001)                 1.700000000000000E+01,      /* K = 13 */
(PID.TID 0000.0001)                 1.600000000000000E+01,      /* K = 14 */
(PID.TID 0000.0001)                 1.500000000000000E+01,      /* K = 15 */
(PID.TID 0000.0001)                 1.400000000000000E+01,      /* K = 16 */
(PID.TID 0000.0001)                 1.300000000000000E+01,      /* K = 17 */
(PID.TID 0000.0001)                 1.200000000000000E+01,      /* K = 18 */
(PID.TID 0000.0001)                 1.100000000000000E+01,      /* K = 19 */
(PID.TID 0000.0001)                 1.000000000000000E+01,      /* K = 20 */
(PID.TID 0000.0001)                 9.000000000000000E+00,      /* K = 21 */
(PID.TID 0000.0001)                 8.000000000000000E+00,      /* K = 22 */
(PID.TID 0000.0001)                 7.000000000000000E+00       /* K = 23 */
(PID.TID 0000.0001)     ;
(PID.TID 0000.0001) sRef =   /* Reference salinity profile ( ppt ) */
(PID.TID 0000.0001)    23 @  0.000000000000000E+00              /* K =  1: 23 */
(PID.TID 0000.0001)     ;
(PID.TID 0000.0001) viscAh =   /* Lateral eddy viscosity ( m^2/s ) */
(PID.TID 0000.0001)                 5.000000000000000E+04
(PID.TID 0000.0001)     ;
(PID.TID 0000.0001) viscAh =   /* Lateral biharmonic viscosity ( m^4/s ) */
(PID.TID 0000.0001)                 5.000000000000000E+12
(PID.TID 0000.0001)     ;
(PID.TID 0000.0001) no_slip_sides =  /* Viscous BCs: No-slip sides */
(PID.TID 0000.0001)                   F
(PID.TID 0000.0001)     ;
(PID.TID 0000.0001) viscAz =   /* Vertical eddy viscosity ( m^2/s ) */
(PID.TID 0000.0001)                 1.000000000000000E-03
(PID.TID 0000.0001)     ;
(PID.TID 0000.0001) viscAr =   /* Vertical eddy viscosity ( units of r^2/s ) */
(PID.TID 0000.0001)                 1.000000000000000E-03
(PID.TID 0000.0001)     ;
(PID.TID 0000.0001) diffKhT =   /* Laplacian diffusion of heat laterally ( m^2/s ) */
(PID.TID 0000.0001)                 1.000000000000000E+03
(PID.TID 0000.0001)     ;
(PID.TID 0000.0001) diffK4T =   /* Bihaarmonic diffusion of heat laterally ( m^4/s ) */
(PID.TID 0000.0001)                 0.000000000000000E+00
(PID.TID 0000.0001)     ;
(PID.TID 0000.0001) diffKzT =   /* Laplacian diffusion of heat vertically ( m^2/s ) */
(PID.TID 0000.0001)                 1.000000000000000E-05
(PID.TID 0000.0001)     ;
(PID.TID 0000.0001) diffKrT =   /* Laplacian diffusion of heat vertically ( m^2/s ) */
(PID.TID 0000.0001)                 1.000000000000000E-05
(PID.TID 0000.0001)     ;
(PID.TID 0000.0001) diffKhS =   /* Laplacian diffusion of salt laterally ( m^2/s ) */
(PID.TID 0000.0001)                 1.000000000000000E+03
(PID.TID 0000.0001)     ;
(PID.TID 0000.0001) diffK4S =   /* Bihaarmonic diffusion of salt laterally ( m^4/s ) */
(PID.TID 0000.0001)                 0.000000000000000E+00
(PID.TID 0000.0001)     ;
(PID.TID 0000.0001) diffKzS =   /* Laplacian diffusion of salt vertically ( m^2/s ) */
(PID.TID 0000.0001)                 1.000000000000000E-05
(PID.TID 0000.0001)     ;
(PID.TID 0000.0001) diffKrS =   /* Laplacian diffusion of salt vertically ( m^2/s ) */
(PID.TID 0000.0001)                 1.000000000000000E-05
(PID.TID 0000.0001)     ;
(PID.TID 0000.0001) tAlpha =   /* Linear EOS thermal expansion coefficient ( 1/degree ) */
(PID.TID 0000.0001)                 2.000000000000000E-04
(PID.TID 0000.0001)     ;
(PID.TID 0000.0001) sBeta =   /* Linear EOS haline contraction coefficient ( 1/ppt ) */
(PID.TID 0000.0001)                 7.400000000000000E-04
(PID.TID 0000.0001)     ;
(PID.TID 0000.0001)   1  13.499  32.600  24.480  -0.201   0.771  -0.005  -0.002   0.000   0.000   0.000   0.000   0.000
(PID.TID 0000.0001)   2  13.498  32.600  24.525  -0.202   0.771  -0.005  -0.002   0.000   0.000   0.000   0.000   0.000
(PID.TID 0000.0001)   3  13.496  32.600  24.581  -0.202   0.771  -0.005  -0.002   0.000   0.000   0.000   0.000   0.000
(PID.TID 0000.0001)   4  13.494  32.600  24.660  -0.202   0.771  -0.005  -0.002   0.000   0.000   0.000   0.000   0.000
(PID.TID 0000.0001)   5  13.491  32.600  24.750  -0.203   0.771  -0.005  -0.002   0.000   0.000   0.000   0.000   0.000
(PID.TID 0000.0001)   6  13.488  32.600  24.851  -0.203   0.770  -0.005  -0.002   0.000   0.000   0.000   0.000   0.000
(PID.TID 0000.0001)   7  13.484  32.600  24.985  -0.204   0.770  -0.005  -0.002   0.000   0.000   0.000   0.000   0.000
(PID.TID 0000.0001)   8  13.478  32.600  25.176  -0.204   0.770  -0.005  -0.002   0.000   0.000   0.000   0.000   0.000
(PID.TID 0000.0001)   9  13.469  32.600  25.456  -0.205   0.769  -0.005  -0.002   0.000   0.000   0.000   0.000   0.000
(PID.TID 0000.0001)  10   8.467  35.150  28.748  -0.163   0.781  -0.005  -0.002   0.001   0.000   0.000   0.000   0.000
(PID.TID 0000.0001)  11   8.454  35.150  29.315  -0.166   0.780  -0.005  -0.002   0.001   0.000   0.000   0.000   0.000
(PID.TID 0000.0001)  12   5.946  34.900  30.300  -0.143   0.785  -0.006  -0.002   0.001   0.000   0.000   0.000   0.000
(PID.TID 0000.0001)  13   4.433  34.900  31.591  -0.132   0.786  -0.006  -0.003   0.000   0.000   0.000   0.000   0.000
(PID.TID 0000.0001)  14   3.909  34.750  32.966  -0.134   0.785  -0.006  -0.003   0.000   0.000   0.000   0.000   0.000
(PID.TID 0000.0001)  15   1.899  34.800  35.002  -0.121   0.787  -0.006  -0.003   0.000   0.000   0.000   0.000   0.000
(PID.TID 0000.0001)  16   1.372  34.750  36.991  -0.127   0.785  -0.006  -0.003  -0.001   0.000   0.000   0.000   0.000
(PID.TID 0000.0001)  17   1.332  34.800  39.171  -0.140   0.782  -0.006  -0.003  -0.001   0.000   0.000   0.000   0.000
(PID.TID 0000.0001)  18   0.797  34.800  41.472  -0.147   0.779  -0.006  -0.003  -0.001   0.000   0.000   0.000   0.000
(PID.TID 0000.0001)  19   0.749  34.800  43.682  -0.160   0.775  -0.005  -0.002  -0.002   0.000   0.000   0.000   0.000
(PID.TID 0000.0001)  20   0.214  34.750  45.912  -0.168   0.772  -0.005  -0.002  -0.002   0.000   0.000   0.000   0.000
(PID.TID 0000.0001)  21   0.160  34.750  48.080  -0.181   0.768  -0.005  -0.002  -0.003   0.000   0.000   0.000   0.000
(PID.TID 0000.0001)  22   0.584  34.750  50.131  -0.197   0.763  -0.005  -0.002  -0.001   0.000   0.000   0.000   0.000
(PID.TID 0000.0001)  23   0.522  34.750  52.248  -0.209   0.760  -0.005  -0.002  -0.002   0.000   0.000   0.000   0.000
(PID.TID 0000.0001) rhonil =   /* Reference density ( kg/m^3 ) */
(PID.TID 0000.0001)                 9.998000000000000E+02
(PID.TID 0000.0001)     ;
(PID.TID 0000.0001) rhoConst =   /* Reference density ( kg/m^3 ) */
(PID.TID 0000.0001)                 9.998000000000000E+02
(PID.TID 0000.0001)     ;
(PID.TID 0000.0001) gravity =   /* Gravitational acceleration ( m/s^2 ) */
(PID.TID 0000.0001)                 9.810000000000000E+00
(PID.TID 0000.0001)     ;
(PID.TID 0000.0001) gBaro =   /* Barotropic gravity ( m/s^2 ) */
(PID.TID 0000.0001)                 9.810000000000000E+00
(PID.TID 0000.0001)     ;
(PID.TID 0000.0001) f0 =   /* Reference coriolis parameter ( 1/s ) */
(PID.TID 0000.0001)                 1.000000000000000E-04
(PID.TID 0000.0001)     ;
(PID.TID 0000.0001) beta =   /* Beta ( 1/(m.s) ) */
(PID.TID 0000.0001)                 9.999999999999999E-12
(PID.TID 0000.0001)     ;
(PID.TID 0000.0001) freeSurfFac =   /* Implicit free surface factor */
(PID.TID 0000.0001)                 1.000000000000000E+00
(PID.TID 0000.0001)     ;
(PID.TID 0000.0001) implicitFreeSurface =   /* Implicit free surface on/off flag */
(PID.TID 0000.0001)                   T
(PID.TID 0000.0001)     ;
(PID.TID 0000.0001) rigidLid =   /* Rigid lid on/off flag */
(PID.TID 0000.0001)                   F
(PID.TID 0000.0001)     ;
(PID.TID 0000.0001) implicSurfPress =   /* Surface Pressure implicit factor (0-1)*/
(PID.TID 0000.0001)                 1.000000000000000E+00
(PID.TID 0000.0001)     ;
(PID.TID 0000.0001) implicDiv2Dflow =   /* Barot. Flow Div. implicit factor (0-1)*/
(PID.TID 0000.0001)                 1.000000000000000E+00
(PID.TID 0000.0001)     ;
(PID.TID 0000.0001) exactConserv =   /* Exact Volume Conservation on/off flag*/
(PID.TID 0000.0001)                   F
(PID.TID 0000.0001)     ;
(PID.TID 0000.0001) uniformLin_PhiSurf =   /* use uniform Bo_surf on/off flag*/
(PID.TID 0000.0001)                   T
(PID.TID 0000.0001)     ;
(PID.TID 0000.0001) nonlinFreeSurf =   /* Non-linear Free Surf. options (-1,0,1,2,3)*/
(PID.TID 0000.0001)                       0
(PID.TID 0000.0001)     ;
(PID.TID 0000.0001)      -1,0= Off ; 1,2,3= On, 2=+rescale gU,gV, 3=+update cg2d solv.
(PID.TID 0000.0001) hFacInf =   /* lower threshold for hFac (nonlinFreeSurf only)*/
(PID.TID 0000.0001)                 1.000000000000000E+00
(PID.TID 0000.0001)     ;
(PID.TID 0000.0001) hFacSup =   /* upper threshold for hFac (nonlinFreeSurf only)*/
(PID.TID 0000.0001)                 1.000000000000000E+00
(PID.TID 0000.0001)     ;
(PID.TID 0000.0001) useRealFreshWaterFlux =   /* Real Fresh Water Flux on/off flag*/
(PID.TID 0000.0001)                   F
(PID.TID 0000.0001)     ;
(PID.TID 0000.0001) convertFW2Salt = /* convert F.W. Flux to Salt Flux (-1=use local S)(ppt)*/
(PID.TID 0000.0001)                 3.500000000000000E+01
(PID.TID 0000.0001)     ;
(PID.TID 0000.0001) staggerTimeStep =   /* Stagger time stepping on/off flag */
(PID.TID 0000.0001)                   F
(PID.TID 0000.0001)     ;
(PID.TID 0000.0001) momStepping =  /* Momentum equation on/off flag */
(PID.TID 0000.0001)                   T
(PID.TID 0000.0001)     ;
(PID.TID 0000.0001) momAdvection =  /* Momentum advection on/off flag */
(PID.TID 0000.0001)                   T
(PID.TID 0000.0001)     ;
(PID.TID 0000.0001) momViscosity =  /* Momentum viscosity on/off flag */
(PID.TID 0000.0001)                   T
(PID.TID 0000.0001)     ;
(PID.TID 0000.0001) useCoriolis =  /* Coriolis on/off flag */
(PID.TID 0000.0001)                   T
(PID.TID 0000.0001)     ;
(PID.TID 0000.0001) momForcing =  /* Momentum forcing on/off flag */
(PID.TID 0000.0001)                   T
(PID.TID 0000.0001)     ;
(PID.TID 0000.0001) momPressureForcing =  /* Momentum pressure term on/off flag */
(PID.TID 0000.0001)                   T
(PID.TID 0000.0001)     ;
(PID.TID 0000.0001) tempStepping =  /* Temperature equation on/off flag */
(PID.TID 0000.0001)                   T
(PID.TID 0000.0001)     ;
(PID.TID 0000.0001) nonHydrostatic =  /* Non-Hydrostatic on/off flag */
(PID.TID 0000.0001)                   F
(PID.TID 0000.0001)     ;
(PID.TID 0000.0001) //
(PID.TID 0000.0001) // Elliptic solver(s) paramters ( PARM02 in namelist )
(PID.TID 0000.0001) //
(PID.TID 0000.0001) cg2dMaxIters =   /* Upper limit on 2d con. grad iterations  */
(PID.TID 0000.0001)                    1000
(PID.TID 0000.0001)     ;
(PID.TID 0000.0001) cg2dChkResFreq =   /* 2d con. grad convergence test frequency */
(PID.TID 0000.0001)                       1
(PID.TID 0000.0001)     ;
(PID.TID 0000.0001) cg2dTargetResidual =   /* 2d con. grad target residual  */
(PID.TID 0000.0001)                 1.000000000000000E-13
(PID.TID 0000.0001)     ;
(PID.TID 0000.0001) //
(PID.TID 0000.0001) // Time stepping paramters ( PARM03 in namelist )
(PID.TID 0000.0001) //
(PID.TID 0000.0001) nIter0 =   /* Base timestep number  */
(PID.TID 0000.0001)                       0
(PID.TID 0000.0001)     ;
(PID.TID 0000.0001) nTimeSteps =   /* Number of timesteps */
(PID.TID 0000.0001)                      20
(PID.TID 0000.0001)     ;
(PID.TID 0000.0001) deltatTmom =   /* Momentum equation timestep ( s ) */
(PID.TID 0000.0001)                 3.600000000000000E+03
(PID.TID 0000.0001)     ;
(PID.TID 0000.0001) deltatTtracer =   /* Tracer equation timestep ( s ) */
(PID.TID 0000.0001)                 3.600000000000000E+03
(PID.TID 0000.0001)     ;
(PID.TID 0000.0001) deltatTClock  =   /* Model clock timestep ( s ) */
(PID.TID 0000.0001)                 3.600000000000000E+03
(PID.TID 0000.0001)     ;
(PID.TID 0000.0001) cAdjFreq =   /* Convective adjustment interval ( s ) */
(PID.TID 0000.0001)                 0.000000000000000E+00
(PID.TID 0000.0001)     ;
(PID.TID 0000.0001) abeps =   /* Adams-Bashforth stabilizing weight */
(PID.TID 0000.0001)                 1.000000000000000E-01
(PID.TID 0000.0001)     ;
(PID.TID 0000.0001) tauCD =   /* CD coupling time-scale ( s ) */
(PID.TID 0000.0001)                 1.728000000000000E+05
(PID.TID 0000.0001)     ;
(PID.TID 0000.0001) rCD =   /* Normalised CD coupling parameter */
(PID.TID 0000.0001)                 9.791666666666666E-01
(PID.TID 0000.0001)     ;
(PID.TID 0000.0001) startTime =   /* Run start time ( s ). */
(PID.TID 0000.0001)                 0.000000000000000E+00
(PID.TID 0000.0001)     ;
(PID.TID 0000.0001) endTime =   /* Integration ending time ( s ). */
(PID.TID 0000.0001)                 7.200000000000000E+04
(PID.TID 0000.0001)     ;
(PID.TID 0000.0001) pChkPtFreq =   /* Permanent restart/checkpoint file interval ( s ). */
(PID.TID 0000.0001)                 0.000000000000000E+00
(PID.TID 0000.0001)     ;
(PID.TID 0000.0001) chkPtFreq =   /* Rolling restart/checkpoint file interval ( s ). */
(PID.TID 0000.0001)                 0.000000000000000E+00
(PID.TID 0000.0001)     ;
(PID.TID 0000.0001) dumpFreq =   /* Model state write out interval ( s ). */
(PID.TID 0000.0001)                 8.640000000000000E+05
(PID.TID 0000.0001)     ;
(PID.TID 0000.0001) //
(PID.TID 0000.0001) // Gridding paramters ( PARM04 in namelist )
(PID.TID 0000.0001) //
(PID.TID 0000.0001) usingCartesianGrid =   /* Cartesian coordinates flag ( True / False ) */
(PID.TID 0000.0001)                   F
(PID.TID 0000.0001)     ;
(PID.TID 0000.0001) usingSphericalPolarGrid =   /* Spherical coordinates flag ( True / False ) */
(PID.TID 0000.0001)                   T
(PID.TID 0000.0001)     ;
(PID.TID 0000.0001) groundAtK1 =   /* Lower Boundary (ground) at the surface(k=1) ( T / F ) */
(PID.TID 0000.0001)                   F
(PID.TID 0000.0001)     ;
(PID.TID 0000.0001) Ro_SeaLevel =   /* r(1) ( units of r ) */
(PID.TID 0000.0001)                 0.000000000000000E+00
(PID.TID 0000.0001)     ;
(PID.TID 0000.0001) rkFac =   /* minus Vertical index orientation  */
(PID.TID 0000.0001)                 1.000000000000000E+00
(PID.TID 0000.0001)     ;
(PID.TID 0000.0001) horiVertRatio =   /* Ratio on units : Horiz - Vertical */
(PID.TID 0000.0001)                 1.000000000000000E+00
(PID.TID 0000.0001)     ;
(PID.TID 0000.0001) delZ =   /* W spacing ( m ) */
(PID.TID 0000.0001)     2 @  1.000000000000000E+01,             /* K =  1:  2 */
(PID.TID 0000.0001)                 1.500000000000000E+01,      /* K =  3 */
(PID.TID 0000.0001)     2 @  2.000000000000000E+01,             /* K =  4:  5 */
(PID.TID 0000.0001)                 2.500000000000000E+01,      /* K =  6 */
(PID.TID 0000.0001)                 3.500000000000000E+01,      /* K =  7 */
(PID.TID 0000.0001)                 5.000000000000000E+01,      /* K =  8 */
(PID.TID 0000.0001)                 7.500000000000000E+01,      /* K =  9 */
(PID.TID 0000.0001)                 1.000000000000000E+02,      /* K = 10 */
(PID.TID 0000.0001)                 1.500000000000000E+02,      /* K = 11 */
(PID.TID 0000.0001)                 2.000000000000000E+02,      /* K = 12 */
(PID.TID 0000.0001)                 2.750000000000000E+02,      /* K = 13 */
(PID.TID 0000.0001)                 3.500000000000000E+02,      /* K = 14 */
(PID.TID 0000.0001)                 4.150000000000000E+02,      /* K = 15 */
(PID.TID 0000.0001)                 4.500000000000000E+02,      /* K = 16 */
(PID.TID 0000.0001)     7 @  5.000000000000000E+02              /* K = 17: 23 */
(PID.TID 0000.0001)     ;
(PID.TID 0000.0001) delP =   /* W spacing ( Pa ) */
(PID.TID 0000.0001)    23 @  1.234567000000000E+05              /* K =  1: 23 */
(PID.TID 0000.0001)     ;
(PID.TID 0000.0001) delR =   /* W spacing ( units of r ) */
(PID.TID 0000.0001)     2 @  1.000000000000000E+01,             /* K =  1:  2 */
(PID.TID 0000.0001)                 1.500000000000000E+01,      /* K =  3 */
(PID.TID 0000.0001)     2 @  2.000000000000000E+01,             /* K =  4:  5 */
(PID.TID 0000.0001)                 2.500000000000000E+01,      /* K =  6 */
(PID.TID 0000.0001)                 3.500000000000000E+01,      /* K =  7 */
(PID.TID 0000.0001)                 5.000000000000000E+01,      /* K =  8 */
(PID.TID 0000.0001)                 7.500000000000000E+01,      /* K =  9 */
(PID.TID 0000.0001)                 1.000000000000000E+02,      /* K = 10 */
(PID.TID 0000.0001)                 1.500000000000000E+02,      /* K = 11 */
(PID.TID 0000.0001)                 2.000000000000000E+02,      /* K = 12 */
(PID.TID 0000.0001)                 2.750000000000000E+02,      /* K = 13 */
(PID.TID 0000.0001)                 3.500000000000000E+02,      /* K = 14 */
(PID.TID 0000.0001)                 4.150000000000000E+02,      /* K = 15 */
(PID.TID 0000.0001)                 4.500000000000000E+02,      /* K = 16 */
(PID.TID 0000.0001)     7 @  5.000000000000000E+02              /* K = 17: 23 */
(PID.TID 0000.0001)     ;
(PID.TID 0000.0001) delX =   /* U spacing ( m - cartesian, degrees - spherical ) */
(PID.TID 0000.0001)    20 @  2.000000000000000E+00              /* I =  1: 20 */
(PID.TID 0000.0001)     ;
(PID.TID 0000.0001) delY =   /* V spacing ( m - cartesian, degrees - spherical ) */
(PID.TID 0000.0001)    16 @  2.000000000000000E+00              /* J =  1: 16 */
(PID.TID 0000.0001)     ;
(PID.TID 0000.0001) phiMin =    /* South edge (ignored - cartesian, degrees - spherical ) */
(PID.TID 0000.0001)                 1.000000000000000E+01
(PID.TID 0000.0001)     ;
(PID.TID 0000.0001) thetaMin =    /* West edge ( ignored - cartesian, degrees - spherical ) */
(PID.TID 0000.0001)                -4.200000000000000E+01
(PID.TID 0000.0001)     ;
(PID.TID 0000.0001) rSphere =    /* Radius ( ignored - cartesian, m - spherical ) */
(PID.TID 0000.0001)                 6.370000000000000E+06
(PID.TID 0000.0001)     ;
(PID.TID 0000.0001) xcoord =   /* P-point X coord ( m - cartesian, degrees - spherical ) */
(PID.TID 0000.0001)                -4.100000000000000E+01,      /* I =  1 */
(PID.TID 0000.0001)                -3.900000000000000E+01,      /* I =  2 */
(PID.TID 0000.0001)                -3.700000000000000E+01,      /* I =  3 */
(PID.TID 0000.0001)                -3.500000000000000E+01,      /* I =  4 */
(PID.TID 0000.0001)                -3.300000000000000E+01,      /* I =  5 */
(PID.TID 0000.0001)                -3.100000000000000E+01,      /* I =  6 */
(PID.TID 0000.0001)                -2.900000000000000E+01,      /* I =  7 */
(PID.TID 0000.0001)                -2.700000000000000E+01,      /* I =  8 */
(PID.TID 0000.0001)                -2.500000000000000E+01,      /* I =  9 */
(PID.TID 0000.0001)                -2.300000000000000E+01,      /* I = 10 */
(PID.TID 0000.0001)                -2.100000000000000E+01,      /* I = 11 */
(PID.TID 0000.0001)                -1.900000000000000E+01,      /* I = 12 */
(PID.TID 0000.0001)                -1.700000000000000E+01,      /* I = 13 */
(PID.TID 0000.0001)                -1.500000000000000E+01,      /* I = 14 */
(PID.TID 0000.0001)                -1.300000000000000E+01,      /* I = 15 */
(PID.TID 0000.0001)                -1.100000000000000E+01,      /* I = 16 */
(PID.TID 0000.0001)                -9.000000000000000E+00,      /* I = 17 */
(PID.TID 0000.0001)                -7.000000000000000E+00,      /* I = 18 */
(PID.TID 0000.0001)                -5.000000000000000E+00,      /* I = 19 */
(PID.TID 0000.0001)                -3.000000000000000E+00       /* I = 20 */
(PID.TID 0000.0001)     ;
(PID.TID 0000.0001) ycoord =   /* P-point Y coord ( m - cartesian, degrees - spherical ) */
(PID.TID 0000.0001)                 1.100000000000000E+01,      /* J =  1 */
(PID.TID 0000.0001)                 1.300000000000000E+01,      /* J =  2 */
(PID.TID 0000.0001)                 1.500000000000000E+01,      /* J =  3 */
(PID.TID 0000.0001)                 1.700000000000000E+01,      /* J =  4 */
(PID.TID 0000.0001)                 1.900000000000000E+01,      /* J =  5 */
(PID.TID 0000.0001)                 2.100000000000000E+01,      /* J =  6 */
(PID.TID 0000.0001)                 2.300000000000000E+01,      /* J =  7 */
(PID.TID 0000.0001)                 2.500000000000000E+01,      /* J =  8 */
(PID.TID 0000.0001)                 2.700000000000000E+01,      /* J =  9 */
(PID.TID 0000.0001)                 2.900000000000000E+01,      /* J = 10 */
(PID.TID 0000.0001)                 3.100000000000000E+01,      /* J = 11 */
(PID.TID 0000.0001)                 3.300000000000000E+01,      /* J = 12 */
(PID.TID 0000.0001)                 3.500000000000000E+01,      /* J = 13 */
(PID.TID 0000.0001)                 3.700000000000000E+01,      /* J = 14 */
(PID.TID 0000.0001)                 3.900000000000000E+01,      /* J = 15 */
(PID.TID 0000.0001)                 4.100000000000000E+01       /* J = 16 */
(PID.TID 0000.0001)     ;
(PID.TID 0000.0001) rcoord =   /* P-point R coordinate (  units of r ) */
(PID.TID 0000.0001)                -5.000000000000000E+00,      /* K =  1 */
(PID.TID 0000.0001)                -1.500000000000000E+01,      /* K =  2 */
(PID.TID 0000.0001)                -2.750000000000000E+01,      /* K =  3 */
(PID.TID 0000.0001)                -4.500000000000000E+01,      /* K =  4 */
(PID.TID 0000.0001)                -6.500000000000000E+01,      /* K =  5 */
(PID.TID 0000.0001)                -8.750000000000000E+01,      /* K =  6 */
(PID.TID 0000.0001)                -1.175000000000000E+02,      /* K =  7 */
(PID.TID 0000.0001)                -1.600000000000000E+02,      /* K =  8 */
(PID.TID 0000.0001)                -2.225000000000000E+02,      /* K =  9 */
(PID.TID 0000.0001)                -3.100000000000000E+02,      /* K = 10 */
(PID.TID 0000.0001)                -4.350000000000000E+02,      /* K = 11 */
(PID.TID 0000.0001)                -6.100000000000000E+02,      /* K = 12 */
(PID.TID 0000.0001)                -8.475000000000000E+02,      /* K = 13 */
(PID.TID 0000.0001)                -1.160000000000000E+03,      /* K = 14 */
(PID.TID 0000.0001)                -1.542500000000000E+03,      /* K = 15 */
(PID.TID 0000.0001)                -1.975000000000000E+03,      /* K = 16 */
(PID.TID 0000.0001)                -2.450000000000000E+03,      /* K = 17 */
(PID.TID 0000.0001)                -2.950000000000000E+03,      /* K = 18 */
(PID.TID 0000.0001)                -3.450000000000000E+03,      /* K = 19 */
(PID.TID 0000.0001)                -3.950000000000000E+03,      /* K = 20 */
(PID.TID 0000.0001)                -4.450000000000000E+03,      /* K = 21 */
(PID.TID 0000.0001)                -4.950000000000000E+03,      /* K = 22 */
(PID.TID 0000.0001)                -5.450000000000000E+03       /* K = 23 */
(PID.TID 0000.0001)     ;
(PID.TID 0000.0001) dxF =  /* dxF(:,1,:,1) ( m - cartesian, degrees - spherical ) */
(PID.TID 0000.0001)    20 @  2.182696600587791E+05              /* I =  1: 20 */
(PID.TID 0000.0001)     ;
(PID.TID 0000.0001) dxF =  /* dxF(1,:,1,:) ( m - cartesian, degrees - spherical ) */
(PID.TID 0000.0001)                 2.182696600587791E+05,      /* J =  1 */
(PID.TID 0000.0001)                 2.166560038253696E+05,      /* J =  2 */
(PID.TID 0000.0001)                 2.147783856245979E+05,      /* J =  3 */
(PID.TID 0000.0001)                 2.126390930450167E+05,      /* J =  4 */
(PID.TID 0000.0001)                 2.102407324851014E+05,      /* J =  5 */
(PID.TID 0000.0001)                 2.075862259777553E+05,      /* J =  6 */
(PID.TID 0000.0001)                 2.046788076302621E+05,      /* J =  7 */
(PID.TID 0000.0001)                 2.015220196840248E+05,      /* J =  8 */
(PID.TID 0000.0001)                 1.981197081988899E+05,      /* J =  9 */
(PID.TID 0000.0001)                 1.944760183673163E+05,      /* J = 10 */
(PID.TID 0000.0001)                 1.905953894640962E+05,      /* J = 11 */
(PID.TID 0000.0001)                 1.864825494377833E+05,      /* J = 12 */
(PID.TID 0000.0001)                 1.821425091504150E+05,      /* J = 13 */
(PID.TID 0000.0001)                 1.775805562725496E+05,      /* J = 14 */
(PID.TID 0000.0001)                 1.728022488410539E+05,      /* J = 15 */
(PID.TID 0000.0001)                 1.678134084874912E+05       /* J = 16 */
(PID.TID 0000.0001)     ;
(PID.TID 0000.0001) dyF =  /* dyF(:,1,:,1) ( m - cartesian, degrees - spherical ) */
(PID.TID 0000.0001)    20 @  2.223549467040776E+05              /* I =  1: 20 */
(PID.TID 0000.0001)     ;
(PID.TID 0000.0001) dyF =  /* dyF(1,:,1,:) ( m - cartesian, degrees - spherical ) */
(PID.TID 0000.0001)    16 @  2.223549467040776E+05              /* J =  1: 16 */
(PID.TID 0000.0001)     ;
(PID.TID 0000.0001) dxG =  /* dxG(:,1,:,1) ( m - cartesian, degrees - spherical ) */
(PID.TID 0000.0001)    20 @  2.189768754347919E+05              /* I =  1: 20 */
(PID.TID 0000.0001)     ;
(PID.TID 0000.0001) dxG =  /* dxG(1,:,1,:) ( m - cartesian, degrees - spherical ) */
(PID.TID 0000.0001)                 2.189768754347919E+05,      /* J =  1 */
(PID.TID 0000.0001)                 2.174959576298867E+05,      /* J =  2 */
(PID.TID 0000.0001)                 2.157500545032934E+05,      /* J =  3 */
(PID.TID 0000.0001)                 2.137412931690361E+05,      /* J =  4 */
(PID.TID 0000.0001)                 2.114721209933746E+05,      /* J =  5 */
(PID.TID 0000.0001)                 2.089453026130656E+05,      /* J =  6 */
(PID.TID 0000.0001)                 2.061639165670792E+05,      /* J =  7 */
(PID.TID 0000.0001)                 2.031313515458727E+05,      /* J =  8 */
(PID.TID 0000.0001)                 1.998513022627935E+05,      /* J =  9 */
(PID.TID 0000.0001)                 1.963277649526403E+05,      /* J = 10 */
(PID.TID 0000.0001)                 1.925650325028661E+05,      /* J = 11 */
(PID.TID 0000.0001)                 1.885676892233566E+05,      /* J = 12 */
(PID.TID 0000.0001)                 1.843406052611542E+05,      /* J = 13 */
(PID.TID 0000.0001)                 1.798889306669345E+05,      /* J = 14 */
(PID.TID 0000.0001)                 1.752180891204627E+05,      /* J = 15 */
(PID.TID 0000.0001)                 1.703337713226752E+05       /* J = 16 */
(PID.TID 0000.0001)     ;
(PID.TID 0000.0001) dyG =  /* dyG(:,1,:,1) ( m - cartesian, degrees - spherical ) */
(PID.TID 0000.0001)    20 @  2.223549467040776E+05              /* I =  1: 20 */
(PID.TID 0000.0001)     ;
(PID.TID 0000.0001) dyG =  /* dyG(1,:,1,:) ( m - cartesian, degrees - spherical ) */
(PID.TID 0000.0001)    16 @  2.223549467040776E+05              /* J =  1: 16 */
(PID.TID 0000.0001)     ;
(PID.TID 0000.0001) dxC =  /* dxC(:,1,:,1) ( m - cartesian, degrees - spherical ) */
(PID.TID 0000.0001)    20 @  2.182696600587791E+05              /* I =  1: 20 */
(PID.TID 0000.0001)     ;
(PID.TID 0000.0001) dxC =  /* dxC(1,:,1,:) ( m - cartesian, degrees - spherical ) */
(PID.TID 0000.0001)                 2.182696600587791E+05,      /* J =  1 */
(PID.TID 0000.0001)                 2.166560038253696E+05,      /* J =  2 */
(PID.TID 0000.0001)                 2.147783856245979E+05,      /* J =  3 */
(PID.TID 0000.0001)                 2.126390930450167E+05,      /* J =  4 */
(PID.TID 0000.0001)                 2.102407324851014E+05,      /* J =  5 */
(PID.TID 0000.0001)                 2.075862259777553E+05,      /* J =  6 */
(PID.TID 0000.0001)                 2.046788076302621E+05,      /* J =  7 */
(PID.TID 0000.0001)                 2.015220196840248E+05,      /* J =  8 */
(PID.TID 0000.0001)                 1.981197081988899E+05,      /* J =  9 */
(PID.TID 0000.0001)                 1.944760183673163E+05,      /* J = 10 */
(PID.TID 0000.0001)                 1.905953894640962E+05,      /* J = 11 */
(PID.TID 0000.0001)                 1.864825494377833E+05,      /* J = 12 */
(PID.TID 0000.0001)                 1.821425091504150E+05,      /* J = 13 */
(PID.TID 0000.0001)                 1.775805562725496E+05,      /* J = 14 */
(PID.TID 0000.0001)                 1.728022488410539E+05,      /* J = 15 */
(PID.TID 0000.0001)                 1.678134084874912E+05       /* J = 16 */
(PID.TID 0000.0001)     ;
(PID.TID 0000.0001) dyC =  /* dyC(:,1,:,1) ( m - cartesian, degrees - spherical ) */
(PID.TID 0000.0001)    20 @  2.223549467040776E+05              /* I =  1: 20 */
(PID.TID 0000.0001)     ;
(PID.TID 0000.0001) dyC =  /* dyC(1,:,1,:) ( m - cartesian, degrees - spherical ) */
(PID.TID 0000.0001)    16 @  2.223549467040776E+05              /* J =  1: 16 */
(PID.TID 0000.0001)     ;
(PID.TID 0000.0001) dxV =  /* dxV(:,1,:,1) ( m - cartesian, degrees - spherical ) */
(PID.TID 0000.0001)    20 @  2.189768754347919E+05              /* I =  1: 20 */
(PID.TID 0000.0001)     ;
(PID.TID 0000.0001) dxV =  /* dxV(1,:,1,:) ( m - cartesian, degrees - spherical ) */
(PID.TID 0000.0001)                 2.189768754347919E+05,      /* J =  1 */
(PID.TID 0000.0001)                 2.174959576298867E+05,      /* J =  2 */
(PID.TID 0000.0001)                 2.157500545032934E+05,      /* J =  3 */
(PID.TID 0000.0001)                 2.137412931690361E+05,      /* J =  4 */
(PID.TID 0000.0001)                 2.114721209933746E+05,      /* J =  5 */
(PID.TID 0000.0001)                 2.089453026130656E+05,      /* J =  6 */
(PID.TID 0000.0001)                 2.061639165670792E+05,      /* J =  7 */
(PID.TID 0000.0001)                 2.031313515458727E+05,      /* J =  8 */
(PID.TID 0000.0001)                 1.998513022627935E+05,      /* J =  9 */
(PID.TID 0000.0001)                 1.963277649526403E+05,      /* J = 10 */
(PID.TID 0000.0001)                 1.925650325028661E+05,      /* J = 11 */
(PID.TID 0000.0001)                 1.885676892233566E+05,      /* J = 12 */
(PID.TID 0000.0001)                 1.843406052611542E+05,      /* J = 13 */
(PID.TID 0000.0001)                 1.798889306669345E+05,      /* J = 14 */
(PID.TID 0000.0001)                 1.752180891204627E+05,      /* J = 15 */
(PID.TID 0000.0001)                 1.703337713226752E+05       /* J = 16 */
(PID.TID 0000.0001)     ;
(PID.TID 0000.0001) dyU =  /* dyU(:,1,:,1) ( m - cartesian, degrees - spherical ) */
(PID.TID 0000.0001)    20 @  2.223549467040776E+05              /* I =  1: 20 */
(PID.TID 0000.0001)     ;
(PID.TID 0000.0001) dyU =  /* dyU(1,:,1,:) ( m - cartesian, degrees - spherical ) */
(PID.TID 0000.0001)    16 @  2.223549467040776E+05              /* J =  1: 16 */
(PID.TID 0000.0001)     ;
(PID.TID 0000.0001) rA =  /* rA(:,1,:,1) ( m - cartesian, degrees - spherical ) */
(PID.TID 0000.0001)    20 @  4.853087465028468E+10              /* I =  1: 20 */
(PID.TID 0000.0001)     ;
(PID.TID 0000.0001) rA =  /* rA(1,:,1,:) ( m - cartesian, degrees - spherical ) */
(PID.TID 0000.0001)                 4.853087465028468E+10,      /* J =  1 */
(PID.TID 0000.0001)                 4.817208842057613E+10,      /* J =  2 */
(PID.TID 0000.0001)                 4.775461192146853E+10,      /* J =  3 */
(PID.TID 0000.0001)                 4.727895378376868E+10,      /* J =  4 */
(PID.TID 0000.0001)                 4.674569352364783E+10,      /* J =  5 */
(PID.TID 0000.0001)                 4.615548083659052E+10,      /* J =  6 */
(PID.TID 0000.0001)                 4.550903480584068E+10,      /* J =  7 */
(PID.TID 0000.0001)                 4.480714302630919E+10,      /* J =  8 */
(PID.TID 0000.0001)                 4.405066064501150E+10,      /* J =  9 */
(PID.TID 0000.0001)                 4.324050931920189E+10,      /* J = 10 */
(PID.TID 0000.0001)                 4.237767609347689E+10,      /* J = 11 */
(PID.TID 0000.0001)                 4.146321219721243E+10,      /* J = 12 */
(PID.TID 0000.0001)                 4.049823176380376E+10,      /* J = 13 */
(PID.TID 0000.0001)                 3.948391047326554E+10,      /* J = 14 */
(PID.TID 0000.0001)                 3.842148411984555E+10,      /* J = 15 */
(PID.TID 0000.0001)                 3.731224710640170E+10       /* J = 16 */
(PID.TID 0000.0001)     ;
(PID.TID 0000.0001) rAw =  /* rAw(:,1,:,1) ( m - cartesian, degrees - spherical ) */
(PID.TID 0000.0001)    20 @  4.853087465028468E+10              /* I =  1: 20 */
(PID.TID 0000.0001)     ;
(PID.TID 0000.0001) rAw =  /* rAw(1,:,1,:) ( m - cartesian, degrees - spherical ) */
(PID.TID 0000.0001)                 4.853087465028468E+10,      /* J =  1 */
(PID.TID 0000.0001)                 4.817208842057613E+10,      /* J =  2 */
(PID.TID 0000.0001)                 4.775461192146853E+10,      /* J =  3 */
(PID.TID 0000.0001)                 4.727895378376868E+10,      /* J =  4 */
(PID.TID 0000.0001)                 4.674569352364783E+10,      /* J =  5 */
(PID.TID 0000.0001)                 4.615548083659052E+10,      /* J =  6 */
(PID.TID 0000.0001)                 4.550903480584068E+10,      /* J =  7 */
(PID.TID 0000.0001)                 4.480714302630919E+10,      /* J =  8 */
(PID.TID 0000.0001)                 4.405066064501150E+10,      /* J =  9 */
(PID.TID 0000.0001)                 4.324050931920189E+10,      /* J = 10 */
(PID.TID 0000.0001)                 4.237767609347689E+10,      /* J = 11 */
(PID.TID 0000.0001)                 4.146321219721243E+10,      /* J = 12 */
(PID.TID 0000.0001)                 4.049823176380376E+10,      /* J = 13 */
(PID.TID 0000.0001)                 3.948391047326554E+10,      /* J = 14 */
(PID.TID 0000.0001)                 3.842148411984555E+10,      /* J = 15 */
(PID.TID 0000.0001)                 3.731224710640170E+10       /* J = 16 */
(PID.TID 0000.0001)     ;
(PID.TID 0000.0001) rAs =  /* rAs(:,1,:,1) ( m - cartesian, degrees - spherical ) */
(PID.TID 0000.0001)    20 @  4.868811950398895E+10              /* I =  1: 20 */
(PID.TID 0000.0001)     ;
(PID.TID 0000.0001) rAs =  /* rAs(1,:,1,:) ( m - cartesian, degrees - spherical ) */
(PID.TID 0000.0001)                 4.868811950398895E+10,      /* J =  1 */
(PID.TID 0000.0001)                 4.835884682203275E+10,      /* J =  2 */
(PID.TID 0000.0001)                 4.797065633433311E+10,      /* J =  3 */
(PID.TID 0000.0001)                 4.752402099120341E+10,      /* J =  4 */
(PID.TID 0000.0001)                 4.701948494900998E+10,      /* J =  5 */
(PID.TID 0000.0001)                 4.645766290720268E+10,      /* J =  6 */
(PID.TID 0000.0001)                 4.583923935939733E+10,      /* J =  7 */
(PID.TID 0000.0001)                 4.516496775942609E+10,      /* J =  8 */
(PID.TID 0000.0001)                 4.443566960336993E+10,      /* J =  9 */
(PID.TID 0000.0001)                 4.365223342869232E+10,      /* J = 10 */
(PID.TID 0000.0001)                 4.281561373169274E+10,      /* J = 11 */
(PID.TID 0000.0001)                 4.192682980460106E+10,      /* J = 12 */
(PID.TID 0000.0001)                 4.098696449372525E+10,      /* J = 13 */
(PID.TID 0000.0001)                 3.999716288017197E+10,      /* J = 14 */
(PID.TID 0000.0001)                 3.895863088473959E+10,      /* J = 15 */
(PID.TID 0000.0001)                 3.787263379869144E+10       /* J = 16 */
(PID.TID 0000.0001)     ;
(PID.TID 0000.0001) 
(PID.TID 0000.0001)  MDSREADFIELD: opening global file: kf_climtheta
(PID.TID 0000.0001) // =======================================================
(PID.TID 0000.0001) // Field Initial Temperature at iteration          1
(PID.TID 0000.0001) // CMIN =          1.840084838867188E+01
(PID.TID 0000.0001) // CMAX =          2.607793426513672E+01
(PID.TID 0000.0001) // CINT =          2.843365139431424E-01
(PID.TID 0000.0001) // SYMBOLS (CMIN->CMAX): -abcdefghijklmnopqrstuvwxyz+
(PID.TID 0000.0001) //                  0.0: .
(PID.TID 0000.0001) // RANGE I (Lo:Hi:Step):(   1:  20:   1)
(PID.TID 0000.0001) // RANGE J (Lo:Hi:Step):(  16:   1:  -1)
(PID.TID 0000.0001) // RANGE K (Lo:Hi:Step):(   1:   1:   1)
(PID.TID 0000.0001) // =======================================================
(PID.TID 0000.0001) K =   1
(PID.TID 0000.0001)                I=10      I=20
(PID.TID 0000.0001) |--J--|123456789|123456789|
(PID.TID 0000.0001)     16 ....................
(PID.TID 0000.0001)     15 .jihhgfeedddcba---a.
(PID.TID 0000.0001)     14 .kjiihggffeedcbbabb.
(PID.TID 0000.0001)     13 .lkkjiiiihgfedccbc..
(PID.TID 0000.0001)     12 .mllkkjjjihgfedcc...
(PID.TID 0000.0001)     11 .onnmmllkjihgfeec...
(PID.TID 0000.0001)     10 .rrqqponmmlkihf.....
(PID.TID 0000.0001)      9 .utssrqponmljh......
(PID.TID 0000.0001)      8 .vuttsrqponlig......
(PID.TID 0000.0001)      7 .vuutsrrponkif......
(PID.TID 0000.0001)      6 .wvvuutsrqomjh......
(PID.TID 0000.0001)      5 .yxwwwvutsrpnl......
(PID.TID 0000.0001)      4 .zyyyxxwwvutrq......
(PID.TID 0000.0001)      3 .zzzzyyxxxxwvu......
(PID.TID 0000.0001)      2 .+++++zzz+++zy......
(PID.TID 0000.0001)      1 ....................
(PID.TID 0000.0001) // =======================================================
(PID.TID 0000.0001) // END OF FIELD                                          =
(PID.TID 0000.0001) // =======================================================
(PID.TID 0000.0001) 
(PID.TID 0000.0001)  MDSREADFIELD: opening global file: kf_climsalt
(PID.TID 0000.0001) // =======================================================
(PID.TID 0000.0001) // Field Initial Salinity at iteration          1
(PID.TID 0000.0001) // CMIN =          3.501070022583008E+01
(PID.TID 0000.0001) // CMAX =          3.739887619018555E+01
(PID.TID 0000.0001) // CINT =          8.845096164279515E-02
(PID.TID 0000.0001) // SYMBOLS (CMIN->CMAX): -abcdefghijklmnopqrstuvwxyz+
(PID.TID 0000.0001) //                  0.0: .
(PID.TID 0000.0001) // RANGE I (Lo:Hi:Step):(   1:  20:   1)
(PID.TID 0000.0001) // RANGE J (Lo:Hi:Step):(  16:   1:  -1)
(PID.TID 0000.0001) // RANGE K (Lo:Hi:Step):(   1:   1:   1)
(PID.TID 0000.0001) // =======================================================
(PID.TID 0000.0001) K =   1
(PID.TID 0000.0001)                I=10      I=20
(PID.TID 0000.0001) |--J--|123456789|123456789|
(PID.TID 0000.0001)     16 ....................
(PID.TID 0000.0001)     15 .oonnnnmmnnnnnnmllk.
(PID.TID 0000.0001)     14 .ppppoooopppppppooo.
(PID.TID 0000.0001)     13 .qqqqqrrrrrrqqqqqq..
(PID.TID 0000.0001)     12 .tttttttttttssrqp...
(PID.TID 0000.0001)     11 .wwwwwwvvvvuusrpn...
(PID.TID 0000.0001)     10 .zzyyyyyxxwvusr.....
(PID.TID 0000.0001)      9 .++zzzzyxxwutr......
(PID.TID 0000.0001)      8 .+zzyyyxwvusrp......
(PID.TID 0000.0001)      7 .xxxxwwutsrpnm......
(PID.TID 0000.0001)      6 .uuuuutsqponlj......
(PID.TID 0000.0001)      5 .rrrrqqponmkji......
(PID.TID 0000.0001)      4 .poooonmmlkihg......
(PID.TID 0000.0001)      3 .mmlllllkjihec......
(PID.TID 0000.0001)      2 .jjjkkkjjihfd-......
(PID.TID 0000.0001)      1 ....................
(PID.TID 0000.0001) // =======================================================
(PID.TID 0000.0001) // END OF FIELD                                          =
(PID.TID 0000.0001) // =======================================================
(PID.TID 0000.0001) 
(PID.TID 0000.0001)  MDSREADFIELD: opening global file: kf_fu
(PID.TID 0000.0001)  MDSREADFIELD: opening global file: kf_fv
(PID.TID 0000.0001)  MDSREADFIELD: opening global file: kf_qnet
(PID.TID 0000.0001)  MDSREADFIELD: opening global file: kf_empmr
(PID.TID 0000.0001)  MDSREADFIELD: opening global file: kf_sst
(PID.TID 0000.0001)  MDSREADFIELD: opening global file: kf_sss
(PID.TID 0000.0001)  MDSREADFIELD: opening global file: kf_sw
(PID.TID 0000.0001) // =======================================================
(PID.TID 0000.0001) // Model current state
(PID.TID 0000.0001) // =======================================================
(PID.TID 0000.0001) 
(PID.TID 0000.0001) // =======================================================
(PID.TID 0000.0001) // Begin MONITOR dynamic field statistics
(PID.TID 0000.0001) // =======================================================
(PID.TID 0000.0001) %MON time_tsnumber                =                     0
(PID.TID 0000.0001) %MON time_secondsf                =   0.0000000000000E+00
(PID.TID 0000.0001) %MON time_secondsi                =                     0
(PID.TID 0000.0001) %MON dynstat_eta_max              =   0.0000000000000E+00
(PID.TID 0000.0001) %MON dynstat_eta_min              =   0.0000000000000E+00
(PID.TID 0000.0001) %MON dynstat_eta_mean             =   0.0000000000000E+00
(PID.TID 0000.0001) %MON dynstat_eta_sd               =   0.0000000000000E+00
(PID.TID 0000.0001) %MON dynstat_eta_del2             =   0.0000000000000E+00
(PID.TID 0000.0001) %MON dynstat_uvel_max             =   0.0000000000000E+00
(PID.TID 0000.0001) %MON dynstat_uvel_min             =   0.0000000000000E+00
(PID.TID 0000.0001) %MON dynstat_uvel_mean            =   0.0000000000000E+00
(PID.TID 0000.0001) %MON dynstat_uvel_sd              =   0.0000000000000E+00
(PID.TID 0000.0001) %MON dynstat_uvel_del2            =   0.0000000000000E+00
(PID.TID 0000.0001) %MON dynstat_vvel_max             =   0.0000000000000E+00
(PID.TID 0000.0001) %MON dynstat_vvel_min             =   0.0000000000000E+00
(PID.TID 0000.0001) %MON dynstat_vvel_mean            =   0.0000000000000E+00
(PID.TID 0000.0001) %MON dynstat_vvel_sd              =   0.0000000000000E+00
(PID.TID 0000.0001) %MON dynstat_vvel_del2            =   0.0000000000000E+00
(PID.TID 0000.0001) %MON dynstat_wvel_max             =   0.0000000000000E+00
(PID.TID 0000.0001) %MON dynstat_wvel_min             =   0.0000000000000E+00
(PID.TID 0000.0001) %MON dynstat_wvel_mean            =   0.0000000000000E+00
(PID.TID 0000.0001) %MON dynstat_wvel_sd              =   0.0000000000000E+00
(PID.TID 0000.0001) %MON dynstat_wvel_del2            =   0.0000000000000E+00
(PID.TID 0000.0001) %MON dynstat_theta_max            =   2.6077934265137E+01
(PID.TID 0000.0001) %MON dynstat_theta_min            =   1.8064365386963E+00
(PID.TID 0000.0001) %MON dynstat_theta_mean           =   5.4784105600004E+00
(PID.TID 0000.0001) %MON dynstat_theta_sd             =   4.5923951934310E+00
(PID.TID 0000.0001) %MON dynstat_theta_del2           =   5.0898848572070E-02
(PID.TID 0000.0001) %MON dynstat_salt_max             =   3.7401638031006E+01
(PID.TID 0000.0001) %MON dynstat_salt_min             =   3.4726768493652E+01
(PID.TID 0000.0001) %MON dynstat_salt_mean            =   3.5157555715946E+01
(PID.TID 0000.0001) %MON dynstat_salt_sd              =   4.1377404390946E-01
(PID.TID 0000.0001) %MON dynstat_salt_del2            =   1.2632116608019E-02
(PID.TID 0000.0001) %MON advcfl_uvel_max              =   0.0000000000000E+00
(PID.TID 0000.0001) %MON advcfl_vvel_max              =   0.0000000000000E+00
(PID.TID 0000.0001) %MON advcfl_wvel_max              =   0.0000000000000E+00
(PID.TID 0000.0001) %MON advcfl_W_hf_max              =   0.0000000000000E+00
(PID.TID 0000.0001) %MON ke_max                       =   0.0000000000000E+00
(PID.TID 0000.0001) %MON ke_mean                      =   0.0000000000000E+00
(PID.TID 0000.0001) %MON ke_volint                    =   0.0000000000000E+00
(PID.TID 0000.0001) %MON ke_volmean                   =   0.0000000000000E+00
(PID.TID 0000.0001) // =======================================================
(PID.TID 0000.0001) // End MONITOR dynamic field statistics
(PID.TID 0000.0001) // =======================================================
 S/R EXTERNAL_FIELDS_LOAD: Reading new data  0. 0
(PID.TID 0000.0001)  MDSREADFIELD: opening global file: kf_fu
(PID.TID 0000.0001)  MDSREADFIELD: opening global file: kf_fu
(PID.TID 0000.0001)  MDSREADFIELD: opening global file: kf_fv
(PID.TID 0000.0001)  MDSREADFIELD: opening global file: kf_fv
(PID.TID 0000.0001)  MDSREADFIELD: opening global file: kf_qnet
(PID.TID 0000.0001)  MDSREADFIELD: opening global file: kf_qnet
(PID.TID 0000.0001)  MDSREADFIELD: opening global file: kf_empmr
(PID.TID 0000.0001)  MDSREADFIELD: opening global file: kf_empmr
(PID.TID 0000.0001)  MDSREADFIELD: opening global file: kf_sst
(PID.TID 0000.0001)  MDSREADFIELD: opening global file: kf_sst
(PID.TID 0000.0001)  MDSREADFIELD: opening global file: kf_sss
(PID.TID 0000.0001)  MDSREADFIELD: opening global file: kf_sss
(PID.TID 0000.0001)  MDSREADFIELD: opening global file: kf_sw
(PID.TID 0000.0001)  MDSREADFIELD: opening global file: kf_sw
 cg2d: Sum(rhs),rhsMax =   4.24660306919122E-15  4.50737656360046E-01
(PID.TID 0000.0001)                    cg2d_init_res =    3.97960747080083E+00
(PID.TID 0000.0001)                       cg2d_iters =    50
(PID.TID 0000.0001)                         cg2d_res =    7.13208990290040E-14
(PID.TID 0000.0001) // =======================================================
(PID.TID 0000.0001) // Begin MONITOR dynamic field statistics
(PID.TID 0000.0001) // =======================================================
(PID.TID 0000.0001) %MON time_tsnumber                =                     1
(PID.TID 0000.0001) %MON time_secondsf                =   3.6000000000000E+03
(PID.TID 0000.0001) %MON time_secondsi                =                  3600
(PID.TID 0000.0001) %MON dynstat_eta_max              =   7.9831848646392E-02
(PID.TID 0000.0001) %MON dynstat_eta_min              =  -1.0327152670087E-01
(PID.TID 0000.0001) %MON dynstat_eta_mean             =  -6.8533801160584E-18
(PID.TID 0000.0001) %MON dynstat_eta_sd               =   3.4047408239500E-02
(PID.TID 0000.0001) %MON dynstat_eta_del2             =   4.0984734777374E-03
(PID.TID 0000.0001) %MON dynstat_uvel_max             =   5.3767310068707E-02
(PID.TID 0000.0001) %MON dynstat_uvel_min             =  -4.2462040483584E-02
(PID.TID 0000.0001) %MON dynstat_uvel_mean            =  -1.7162005942187E-03
(PID.TID 0000.0001) %MON dynstat_uvel_sd              =   1.4714462727428E-03
(PID.TID 0000.0001) %MON dynstat_uvel_del2            =   4.3032581284342E-04
(PID.TID 0000.0001) %MON dynstat_vvel_max             =   1.0121841087761E-02
(PID.TID 0000.0001) %MON dynstat_vvel_min             =  -2.9296628091431E-02
(PID.TID 0000.0001) %MON dynstat_vvel_mean            =  -1.2965381764510E-04
(PID.TID 0000.0001) %MON dynstat_vvel_sd              =   1.6348907704578E-03
(PID.TID 0000.0001) %MON dynstat_vvel_del2            =   5.9219754534886E-04
(PID.TID 0000.0001) %MON dynstat_wvel_max             =   0.0000000000000E+00
(PID.TID 0000.0001) %MON dynstat_wvel_min             =   0.0000000000000E+00
(PID.TID 0000.0001) %MON dynstat_wvel_mean            =   0.0000000000000E+00
(PID.TID 0000.0001) %MON dynstat_wvel_sd              =   0.0000000000000E+00
(PID.TID 0000.0001) %MON dynstat_wvel_del2            =   0.0000000000000E+00
(PID.TID 0000.0001) %MON dynstat_theta_max            =   2.6076654048020E+01
(PID.TID 0000.0001) %MON dynstat_theta_min            =   1.8064390104771E+00
(PID.TID 0000.0001) %MON dynstat_theta_mean           =   5.4784296546518E+00
(PID.TID 0000.0001) %MON dynstat_theta_sd             =   4.5924594548543E+00
(PID.TID 0000.0001) %MON dynstat_theta_del2           =   5.0903686392629E-02
(PID.TID 0000.0001) %MON dynstat_salt_max             =   3.7400751159636E+01
(PID.TID 0000.0001) %MON dynstat_salt_min             =   3.4726771995658E+01
(PID.TID 0000.0001) %MON dynstat_salt_mean            =   3.5157556923008E+01
(PID.TID 0000.0001) %MON dynstat_salt_sd              =   4.1377676512749E-01
(PID.TID 0000.0001) %MON dynstat_salt_del2            =   1.2629962839006E-02
(PID.TID 0000.0001) %MON advcfl_uvel_max              =   1.1201377154842E-03
(PID.TID 0000.0001) %MON advcfl_vvel_max              =   4.7432208139499E-04
(PID.TID 0000.0001) %MON advcfl_wvel_max              =   0.0000000000000E+00
(PID.TID 0000.0001) %MON advcfl_W_hf_max              =   0.0000000000000E+00
(PID.TID 0000.0001) %MON ke_max                       =   9.5687170714355E-04
(PID.TID 0000.0001) %MON ke_mean                      =   1.4363420333833E-05
(PID.TID 0000.0001) %MON ke_volint                    =   1.2545503001198E+11
(PID.TID 0000.0001) %MON ke_volmean                   =   3.4822032245531E-06
(PID.TID 0000.0001) // =======================================================
(PID.TID 0000.0001) // End MONITOR dynamic field statistics
(PID.TID 0000.0001) // =======================================================
 S/R EXTERNAL_FIELDS_LOAD: Reading new data  3600. 1
(PID.TID 0000.0001)  MDSREADFIELD: opening global file: kf_fu
(PID.TID 0000.0001)  MDSREADFIELD: opening global file: kf_fu
(PID.TID 0000.0001)  MDSREADFIELD: opening global file: kf_fv
(PID.TID 0000.0001)  MDSREADFIELD: opening global file: kf_fv
(PID.TID 0000.0001)  MDSREADFIELD: opening global file: kf_qnet
(PID.TID 0000.0001)  MDSREADFIELD: opening global file: kf_qnet
(PID.TID 0000.0001)  MDSREADFIELD: opening global file: kf_empmr
(PID.TID 0000.0001)  MDSREADFIELD: opening global file: kf_empmr
(PID.TID 0000.0001)  MDSREADFIELD: opening global file: kf_sst
(PID.TID 0000.0001)  MDSREADFIELD: opening global file: kf_sst
(PID.TID 0000.0001)  MDSREADFIELD: opening global file: kf_sss
(PID.TID 0000.0001)  MDSREADFIELD: opening global file: kf_sss
(PID.TID 0000.0001)  MDSREADFIELD: opening global file: kf_sw
(PID.TID 0000.0001)  MDSREADFIELD: opening global file: kf_sw
 cg2d: Sum(rhs),rhsMax =  -3.60822483003176E-16  5.55580894610594E-01
(PID.TID 0000.0001)                    cg2d_init_res =    9.18792761088797E-01
(PID.TID 0000.0001)                       cg2d_iters =    47
(PID.TID 0000.0001)                         cg2d_res =    7.05573798908933E-14
(PID.TID 0000.0001) // =======================================================
(PID.TID 0000.0001) // Begin MONITOR dynamic field statistics
(PID.TID 0000.0001) // =======================================================
(PID.TID 0000.0001) %MON time_tsnumber                =                     2
(PID.TID 0000.0001) %MON time_secondsf                =   7.2000000000000E+03
(PID.TID 0000.0001) %MON time_secondsi                =                  7200
(PID.TID 0000.0001) %MON dynstat_eta_max              =   1.4747680131806E-01
(PID.TID 0000.0001) %MON dynstat_eta_min              =  -1.8208426969290E-01
(PID.TID 0000.0001) %MON dynstat_eta_mean             =  -8.8956795224569E-18
(PID.TID 0000.0001) %MON dynstat_eta_sd               =   6.7128136846706E-02
(PID.TID 0000.0001) %MON dynstat_eta_del2             =   4.6952457507973E-03
(PID.TID 0000.0001) %MON dynstat_uvel_max             =   1.0408433259213E-01
(PID.TID 0000.0001) %MON dynstat_uvel_min             =  -7.3099133249634E-02
(PID.TID 0000.0001) %MON dynstat_uvel_mean            =  -2.1353969477338E-03
(PID.TID 0000.0001) %MON dynstat_uvel_sd              =   2.6836129121736E-03
(PID.TID 0000.0001) %MON dynstat_uvel_del2            =   8.2509180719972E-04
(PID.TID 0000.0001) %MON dynstat_vvel_max             =   2.1344592462603E-02
(PID.TID 0000.0001) %MON dynstat_vvel_min             =  -5.3407810964105E-02
(PID.TID 0000.0001) %MON dynstat_vvel_mean            =  -2.0984182031950E-04
(PID.TID 0000.0001) %MON dynstat_vvel_sd              =   2.9876053793688E-03
(PID.TID 0000.0001) %MON dynstat_vvel_del2            =   1.1679607570542E-03
(PID.TID 0000.0001) %MON dynstat_wvel_max             =   4.7438450209647E-05
(PID.TID 0000.0001) %MON dynstat_wvel_min             =  -9.2458472497103E-05
(PID.TID 0000.0001) %MON dynstat_wvel_mean            =   8.9778892691659E-23
(PID.TID 0000.0001) %MON dynstat_wvel_sd              =   1.2602961720835E-05
(PID.TID 0000.0001) %MON dynstat_wvel_del2            =   3.1493539806503E-06
(PID.TID 0000.0001) %MON dynstat_theta_max            =   2.6075142164144E+01
(PID.TID 0000.0001) %MON dynstat_theta_min            =   1.8064390241864E+00
(PID.TID 0000.0001) %MON dynstat_theta_mean           =   5.4784377028354E+00
(PID.TID 0000.0001) %MON dynstat_theta_sd             =   4.5924854556100E+00
(PID.TID 0000.0001) %MON dynstat_theta_del2           =   5.0854263625378E-02
(PID.TID 0000.0001) %MON dynstat_salt_max             =   3.7400673032956E+01
(PID.TID 0000.0001) %MON dynstat_salt_min             =   3.4726779359477E+01
(PID.TID 0000.0001) %MON dynstat_salt_mean            =   3.5157555144761E+01
(PID.TID 0000.0001) %MON dynstat_salt_sd              =   4.1376901300912E-01
(PID.TID 0000.0001) %MON dynstat_salt_del2            =   1.2629248843888E-02
(PID.TID 0000.0001) %MON advcfl_uvel_max              =   2.1683953758977E-03
(PID.TID 0000.0001) %MON advcfl_vvel_max              =   8.6469009266819E-04
(PID.TID 0000.0001) %MON advcfl_wvel_max              =   2.0654305340174E-02
(PID.TID 0000.0001) %MON advcfl_W_hf_max              =   2.0528100592626E-02
(PID.TID 0000.0001) %MON ke_max                       =   3.1033560292491E-03
(PID.TID 0000.0001) %MON ke_mean                      =   5.1174279140147E-05
(PID.TID 0000.0001) %MON ke_volint                    =   3.3271022692761E+11
(PID.TID 0000.0001) %MON ke_volmean                   =   9.2348997480489E-06
(PID.TID 0000.0001) // =======================================================
(PID.TID 0000.0001) // End MONITOR dynamic field statistics
(PID.TID 0000.0001) // =======================================================
 cg2d: Sum(rhs),rhsMax =   3.16413562018170E-15  5.83480921872412E-01
(PID.TID 0000.0001)                    cg2d_init_res =    5.49843676092372E-01
(PID.TID 0000.0001)                       cg2d_iters =    46
(PID.TID 0000.0001)                         cg2d_res =    7.64356928506226E-14
(PID.TID 0000.0001) // =======================================================
(PID.TID 0000.0001) // Begin MONITOR dynamic field statistics
(PID.TID 0000.0001) // =======================================================
(PID.TID 0000.0001) %MON time_tsnumber                =                     3
(PID.TID 0000.0001) %MON time_secondsf                =   1.0800000000000E+04
(PID.TID 0000.0001) %MON time_secondsi                =                 10800
(PID.TID 0000.0001) %MON dynstat_eta_max              =   1.8595228880970E-01
(PID.TID 0000.0001) %MON dynstat_eta_min              =  -2.3829516686015E-01
(PID.TID 0000.0001) %MON dynstat_eta_mean             =  -1.5111967918294E-18
(PID.TID 0000.0001) %MON dynstat_eta_sd               =   9.1327140238676E-02
(PID.TID 0000.0001) %MON dynstat_eta_del2             =   4.4580101706414E-03
(PID.TID 0000.0001) %MON dynstat_uvel_max             =   1.4697163601360E-01
(PID.TID 0000.0001) %MON dynstat_uvel_min             =  -9.6705453708697E-02
(PID.TID 0000.0001) %MON dynstat_uvel_mean            =  -1.6505300441257E-03
(PID.TID 0000.0001) %MON dynstat_uvel_sd              =   3.7386508733661E-03
(PID.TID 0000.0001) %MON dynstat_uvel_del2            =   1.2134936363585E-03
(PID.TID 0000.0001) %MON dynstat_vvel_max             =   3.1359567868352E-02
(PID.TID 0000.0001) %MON dynstat_vvel_min             =  -7.2709700184968E-02
(PID.TID 0000.0001) %MON dynstat_vvel_mean            =  -4.2591051091380E-04
(PID.TID 0000.0001) %MON dynstat_vvel_sd              =   4.2064571250013E-03
(PID.TID 0000.0001) %MON dynstat_vvel_del2            =   1.6594734941503E-03
(PID.TID 0000.0001) %MON dynstat_wvel_max             =   7.5984121267501E-05
(PID.TID 0000.0001) %MON dynstat_wvel_min             =  -1.4301003079481E-04
(PID.TID 0000.0001) %MON dynstat_wvel_mean            =  -1.4176075606873E-22
(PID.TID 0000.0001) %MON dynstat_wvel_sd              =   1.9442451173703E-05
(PID.TID 0000.0001) %MON dynstat_wvel_del2            =   4.5241564661240E-06
(PID.TID 0000.0001) %MON dynstat_theta_max            =   2.6073527663077E+01
(PID.TID 0000.0001) %MON dynstat_theta_min            =   1.8064395683377E+00
(PID.TID 0000.0001) %MON dynstat_theta_mean           =   5.4784462567170E+00
(PID.TID 0000.0001) %MON dynstat_theta_sd             =   4.5925125250643E+00
(PID.TID 0000.0001) %MON dynstat_theta_del2           =   5.0828120032943E-02
(PID.TID 0000.0001) %MON dynstat_salt_max             =   3.7400692070082E+01
(PID.TID 0000.0001) %MON dynstat_salt_min             =   3.4726785376275E+01
(PID.TID 0000.0001) %MON dynstat_salt_mean            =   3.5157554524410E+01
(PID.TID 0000.0001) %MON dynstat_salt_sd              =   4.1376546725157E-01
(PID.TID 0000.0001) %MON dynstat_salt_del2            =   1.2629078950805E-02
(PID.TID 0000.0001) %MON advcfl_uvel_max              =   3.0618692360633E-03
(PID.TID 0000.0001) %MON advcfl_vvel_max              =   1.1771940518789E-03
(PID.TID 0000.0001) %MON advcfl_wvel_max              =   1.6837673869859E-02
(PID.TID 0000.0001) %MON advcfl_W_hf_max              =   2.0933154553759E-02
(PID.TID 0000.0001) %MON ke_max                       =   6.2722526249557E-03
(PID.TID 0000.0001) %MON ke_mean                      =   1.0263544576705E-04
(PID.TID 0000.0001) %MON ke_volint                    =   5.5375225951067E+11
(PID.TID 0000.0001) %MON ke_volmean                   =   1.5370271749865E-05
(PID.TID 0000.0001) // =======================================================
(PID.TID 0000.0001) // End MONITOR dynamic field statistics
(PID.TID 0000.0001) // =======================================================
 cg2d: Sum(rhs),rhsMax =   1.24900090270330E-15  6.07089382934688E-01
(PID.TID 0000.0001)                    cg2d_init_res =    2.97163864710554E-01
(PID.TID 0000.0001)                       cg2d_iters =    47
(PID.TID 0000.0001)                         cg2d_res =    5.03566264708330E-14
(PID.TID 0000.0001) // =======================================================
(PID.TID 0000.0001) // Begin MONITOR dynamic field statistics
(PID.TID 0000.0001) // =======================================================
(PID.TID 0000.0001) %MON time_tsnumber                =                     4
(PID.TID 0000.0001) %MON time_secondsf                =   1.4400000000000E+04
(PID.TID 0000.0001) %MON time_secondsi                =                 14400
(PID.TID 0000.0001) %MON dynstat_eta_max              =   1.9627231023406E-01
(PID.TID 0000.0001) %MON dynstat_eta_min              =  -2.7139002271792E-01
(PID.TID 0000.0001) %MON dynstat_eta_mean             =   2.1576503921653E-18
(PID.TID 0000.0001) %MON dynstat_eta_sd               =   1.0331227529954E-01
(PID.TID 0000.0001) %MON dynstat_eta_del2             =   4.4226158707387E-03
(PID.TID 0000.0001) %MON dynstat_uvel_max             =   1.7730274245660E-01
(PID.TID 0000.0001) %MON dynstat_uvel_min             =  -1.1582956196590E-01
(PID.TID 0000.0001) %MON dynstat_uvel_mean            =  -8.1543734192254E-04
(PID.TID 0000.0001) %MON dynstat_uvel_sd              =   4.7555929310731E-03
(PID.TID 0000.0001) %MON dynstat_uvel_del2            =   1.6002984557558E-03
(PID.TID 0000.0001) %MON dynstat_vvel_max             =   3.9314883684603E-02
(PID.TID 0000.0001) %MON dynstat_vvel_min             =  -9.0546460222096E-02
(PID.TID 0000.0001) %MON dynstat_vvel_mean            =  -6.6445373966495E-04
(PID.TID 0000.0001) %MON dynstat_vvel_sd              =   5.2286902220061E-03
(PID.TID 0000.0001) %MON dynstat_vvel_del2            =   2.0506461019811E-03
(PID.TID 0000.0001) %MON dynstat_wvel_max             =   9.8737538762809E-05
(PID.TID 0000.0001) %MON dynstat_wvel_min             =  -1.7306547540628E-04
(PID.TID 0000.0001) %MON dynstat_wvel_mean            =  -9.6081975377917E-23
(PID.TID 0000.0001) %MON dynstat_wvel_sd              =   2.5199775056437E-05
(PID.TID 0000.0001) %MON dynstat_wvel_del2            =   6.0639291554050E-06
(PID.TID 0000.0001) %MON dynstat_theta_max            =   2.6071812802125E+01
(PID.TID 0000.0001) %MON dynstat_theta_min            =   1.8064406152496E+00
(PID.TID 0000.0001) %MON dynstat_theta_mean           =   5.4784564072855E+00
(PID.TID 0000.0001) %MON dynstat_theta_sd             =   4.5925444975206E+00
(PID.TID 0000.0001) %MON dynstat_theta_del2           =   5.0797583614428E-02
(PID.TID 0000.0001) %MON dynstat_salt_max             =   3.7400960445596E+01
(PID.TID 0000.0001) %MON dynstat_salt_min             =   3.4726790540921E+01
(PID.TID 0000.0001) %MON dynstat_salt_mean            =   3.5157555200452E+01
(PID.TID 0000.0001) %MON dynstat_salt_sd              =   4.1376635840932E-01
(PID.TID 0000.0001) %MON dynstat_salt_del2            =   1.2628702255774E-02
(PID.TID 0000.0001) %MON advcfl_uvel_max              =   3.6937590634649E-03
(PID.TID 0000.0001) %MON advcfl_vvel_max              =   1.4659770858768E-03
(PID.TID 0000.0001) %MON advcfl_wvel_max              =   1.4131636018712E-02
(PID.TID 0000.0001) %MON advcfl_W_hf_max              =   1.9921367444287E-02
(PID.TID 0000.0001) %MON ke_max                       =   9.3180643988610E-03
(PID.TID 0000.0001) %MON ke_mean                      =   1.6394644127662E-04
(PID.TID 0000.0001) %MON ke_volint                    =   8.1718610244213E+11
(PID.TID 0000.0001) %MON ke_volmean                   =   2.2682295645796E-05
(PID.TID 0000.0001) // =======================================================
(PID.TID 0000.0001) // End MONITOR dynamic field statistics
(PID.TID 0000.0001) // =======================================================
 cg2d: Sum(rhs),rhsMax =   2.41473507855972E-15  6.21143979575454E-01
(PID.TID 0000.0001)                    cg2d_init_res =    2.45540794860229E-01
(PID.TID 0000.0001)                       cg2d_iters =    47
(PID.TID 0000.0001)                         cg2d_res =    3.93201526171715E-14
(PID.TID 0000.0001) // =======================================================
(PID.TID 0000.0001) // Begin MONITOR dynamic field statistics
(PID.TID 0000.0001) // =======================================================
(PID.TID 0000.0001) %MON time_tsnumber                =                     5
(PID.TID 0000.0001) %MON time_secondsf                =   1.8000000000000E+04
(PID.TID 0000.0001) %MON time_secondsi                =                 18000
(PID.TID 0000.0001) %MON dynstat_eta_max              =   1.8812326782259E-01
(PID.TID 0000.0001) %MON dynstat_eta_min              =  -2.8341184520444E-01
(PID.TID 0000.0001) %MON dynstat_eta_mean             =   1.0459302842926E-17
(PID.TID 0000.0001) %MON dynstat_eta_sd               =   1.0493859673095E-01
(PID.TID 0000.0001) %MON dynstat_eta_del2             =   4.5212698260173E-03
(PID.TID 0000.0001) %MON dynstat_uvel_max             =   1.7906001642803E-01
(PID.TID 0000.0001) %MON dynstat_uvel_min             =  -1.3243693248467E-01
(PID.TID 0000.0001) %MON dynstat_uvel_mean            =  -5.2546576832712E-05
(PID.TID 0000.0001) %MON dynstat_uvel_sd              =   5.7446908727786E-03
(PID.TID 0000.0001) %MON dynstat_uvel_del2            =   1.9818423773486E-03
(PID.TID 0000.0001) %MON dynstat_vvel_max             =   4.4823662204095E-02
(PID.TID 0000.0001) %MON dynstat_vvel_min             =  -1.0866419311473E-01
(PID.TID 0000.0001) %MON dynstat_vvel_mean            =  -7.6634902596832E-04
(PID.TID 0000.0001) %MON dynstat_vvel_sd              =   6.0249099122311E-03
(PID.TID 0000.0001) %MON dynstat_vvel_del2            =   2.3262355910334E-03
(PID.TID 0000.0001) %MON dynstat_wvel_max             =   1.1374309559840E-04
(PID.TID 0000.0001) %MON dynstat_wvel_min             =  -1.8464100039358E-04
(PID.TID 0000.0001) %MON dynstat_wvel_mean            =  -6.0071799808438E-22
(PID.TID 0000.0001) %MON dynstat_wvel_sd              =   2.9997498981263E-05
(PID.TID 0000.0001) %MON dynstat_wvel_del2            =   7.3590671303754E-06
(PID.TID 0000.0001) %MON dynstat_theta_max            =   2.6070067566660E+01
(PID.TID 0000.0001) %MON dynstat_theta_min            =   1.8064422271982E+00
(PID.TID 0000.0001) %MON dynstat_theta_mean           =   5.4784684366446E+00
(PID.TID 0000.0001) %MON dynstat_theta_sd             =   4.5925826499974E+00
(PID.TID 0000.0001) %MON dynstat_theta_del2           =   5.0765563396657E-02
(PID.TID 0000.0001) %MON dynstat_salt_max             =   3.7401224066302E+01
(PID.TID 0000.0001) %MON dynstat_salt_min             =   3.4726794346571E+01
(PID.TID 0000.0001) %MON dynstat_salt_mean            =   3.5157556779621E+01
(PID.TID 0000.0001) %MON dynstat_salt_sd              =   4.1377004286960E-01
(PID.TID 0000.0001) %MON dynstat_salt_del2            =   1.2628615219875E-02
(PID.TID 0000.0001) %MON advcfl_uvel_max              =   3.7303684614303E-03
(PID.TID 0000.0001) %MON advcfl_vvel_max              =   1.7593091631717E-03
(PID.TID 0000.0001) %MON advcfl_wvel_max              =   8.8164550804743E-03
(PID.TID 0000.0001) %MON advcfl_W_hf_max              =   1.4095940546177E-02
(PID.TID 0000.0001) %MON ke_max                       =   9.9912007404271E-03
(PID.TID 0000.0001) %MON ke_mean                      =   2.2890213959615E-04
(PID.TID 0000.0001) %MON ke_volint                    =   1.1189928034399E+12
(PID.TID 0000.0001) %MON ke_volmean                   =   3.1059419044561E-05
(PID.TID 0000.0001) // =======================================================
(PID.TID 0000.0001) // End MONITOR dynamic field statistics
(PID.TID 0000.0001) // =======================================================
 cg2d: Sum(rhs),rhsMax =   2.10942374678780E-15  6.21676458832010E-01
(PID.TID 0000.0001)                    cg2d_init_res =    2.81016274438463E-01
(PID.TID 0000.0001)                       cg2d_iters =    47
(PID.TID 0000.0001)                         cg2d_res =    4.15710925149532E-14
(PID.TID 0000.0001) // =======================================================
(PID.TID 0000.0001) // Begin MONITOR dynamic field statistics
(PID.TID 0000.0001) // =======================================================
(PID.TID 0000.0001) %MON time_tsnumber                =                     6
(PID.TID 0000.0001) %MON time_secondsf                =   2.1600000000000E+04
(PID.TID 0000.0001) %MON time_secondsi                =                 21600
(PID.TID 0000.0001) %MON dynstat_eta_max              =   1.8435079390568E-01
(PID.TID 0000.0001) %MON dynstat_eta_min              =  -2.7975744215275E-01
(PID.TID 0000.0001) %MON dynstat_eta_mean             =   1.4760045377731E-17
(PID.TID 0000.0001) %MON dynstat_eta_sd               =   1.0063707899671E-01
(PID.TID 0000.0001) %MON dynstat_eta_del2             =   4.5944647634894E-03
(PID.TID 0000.0001) %MON dynstat_uvel_max             =   1.6536916745653E-01
(PID.TID 0000.0001) %MON dynstat_uvel_min             =  -1.4727344733260E-01
(PID.TID 0000.0001) %MON dynstat_uvel_mean            =   4.2995915417555E-04
(PID.TID 0000.0001) %MON dynstat_uvel_sd              =   6.6714487016250E-03
(PID.TID 0000.0001) %MON dynstat_uvel_del2            =   2.3476285489144E-03
(PID.TID 0000.0001) %MON dynstat_vvel_max             =   4.7607709411905E-02
(PID.TID 0000.0001) %MON dynstat_vvel_min             =  -1.2111554252362E-01
(PID.TID 0000.0001) %MON dynstat_vvel_mean            =  -6.5907414769192E-04
(PID.TID 0000.0001) %MON dynstat_vvel_sd              =   6.5976904209833E-03
(PID.TID 0000.0001) %MON dynstat_vvel_del2            =   2.4774403408306E-03
(PID.TID 0000.0001) %MON dynstat_wvel_max             =   1.2005647249684E-04
(PID.TID 0000.0001) %MON dynstat_wvel_min             =  -1.7855357421979E-04
(PID.TID 0000.0001) %MON dynstat_wvel_mean            =  -1.1135002431796E-22
(PID.TID 0000.0001) %MON dynstat_wvel_sd              =   3.3536209616984E-05
(PID.TID 0000.0001) %MON dynstat_wvel_del2            =   8.2466420859935E-06
(PID.TID 0000.0001) %MON dynstat_theta_max            =   2.6075021815393E+01
(PID.TID 0000.0001) %MON dynstat_theta_min            =   1.8064442715262E+00
(PID.TID 0000.0001) %MON dynstat_theta_mean           =   5.4784826027002E+00
(PID.TID 0000.0001) %MON dynstat_theta_sd             =   4.5926282331492E+00
(PID.TID 0000.0001) %MON dynstat_theta_del2           =   5.0736845419563E-02
(PID.TID 0000.0001) %MON dynstat_salt_max             =   3.7401486054928E+01
(PID.TID 0000.0001) %MON dynstat_salt_min             =   3.4726796682486E+01
(PID.TID 0000.0001) %MON dynstat_salt_mean            =   3.5157558830998E+01
(PID.TID 0000.0001) %MON dynstat_salt_sd              =   4.1377512136295E-01
(PID.TID 0000.0001) %MON dynstat_salt_del2            =   1.2628551862389E-02
(PID.TID 0000.0001) %MON advcfl_uvel_max              =   3.4451461531100E-03
(PID.TID 0000.0001) %MON advcfl_vvel_max              =   1.9609006210475E-03
(PID.TID 0000.0001) %MON advcfl_wvel_max              =   4.3018587434018E-03
(PID.TID 0000.0001) %MON advcfl_W_hf_max              =   7.5077966436661E-03
(PID.TID 0000.0001) %MON ke_max                       =   1.0809064493568E-02
(PID.TID 0000.0001) %MON ke_mean                      =   2.9256033172533E-04
(PID.TID 0000.0001) %MON ke_volint                    =   1.4205745635851E+12
(PID.TID 0000.0001) %MON ke_volmean                   =   3.9430298853395E-05
(PID.TID 0000.0001) // =======================================================
(PID.TID 0000.0001) // End MONITOR dynamic field statistics
(PID.TID 0000.0001) // =======================================================
 cg2d: Sum(rhs),rhsMax =   5.68989300120393E-16  6.11135932231142E-01
(PID.TID 0000.0001)                    cg2d_init_res =    2.63091082530670E-01
(PID.TID 0000.0001)                       cg2d_iters =    47
(PID.TID 0000.0001)                         cg2d_res =    4.30519068314945E-14
(PID.TID 0000.0001) // =======================================================
(PID.TID 0000.0001) // Begin MONITOR dynamic field statistics
(PID.TID 0000.0001) // =======================================================
(PID.TID 0000.0001) %MON time_tsnumber                =                     7
(PID.TID 0000.0001) %MON time_secondsf                =   2.5200000000000E+04
(PID.TID 0000.0001) %MON time_secondsi                =                 25200
(PID.TID 0000.0001) %MON dynstat_eta_max              =   1.7621675611152E-01
(PID.TID 0000.0001) %MON dynstat_eta_min              =  -2.6854247035199E-01
(PID.TID 0000.0001) %MON dynstat_eta_mean             =   1.9471953271978E-17
(PID.TID 0000.0001) %MON dynstat_eta_sd               =   9.4044374854698E-02
(PID.TID 0000.0001) %MON dynstat_eta_del2             =   4.6225796111476E-03
(PID.TID 0000.0001) %MON dynstat_uvel_max             =   1.4579493082521E-01
(PID.TID 0000.0001) %MON dynstat_uvel_min             =  -1.6053842975096E-01
(PID.TID 0000.0001) %MON dynstat_uvel_mean            =   6.0829393211809E-04
(PID.TID 0000.0001) %MON dynstat_uvel_sd              =   7.4954424673117E-03
(PID.TID 0000.0001) %MON dynstat_uvel_del2            =   2.6829887664923E-03
(PID.TID 0000.0001) %MON dynstat_vvel_max             =   4.9443382424482E-02
(PID.TID 0000.0001) %MON dynstat_vvel_min             =  -1.2700691244440E-01
(PID.TID 0000.0001) %MON dynstat_vvel_mean            =  -3.7951331925923E-04
(PID.TID 0000.0001) %MON dynstat_vvel_sd              =   6.9721035952295E-03
(PID.TID 0000.0001) %MON dynstat_vvel_del2            =   2.5125743848183E-03
(PID.TID 0000.0001) %MON dynstat_wvel_max             =   1.3288966888355E-04
(PID.TID 0000.0001) %MON dynstat_wvel_min             =  -1.5753918403868E-04
(PID.TID 0000.0001) %MON dynstat_wvel_mean            =  -4.5166883307335E-22
(PID.TID 0000.0001) %MON dynstat_wvel_sd              =   3.5672461731881E-05
(PID.TID 0000.0001) %MON dynstat_wvel_del2            =   8.7010470289168E-06
(PID.TID 0000.0001) %MON dynstat_theta_max            =   2.6081689358111E+01
(PID.TID 0000.0001) %MON dynstat_theta_min            =   1.8064465123701E+00
(PID.TID 0000.0001) %MON dynstat_theta_mean           =   5.4784990730335E+00
(PID.TID 0000.0001) %MON dynstat_theta_sd             =   4.5926821404813E+00
(PID.TID 0000.0001) %MON dynstat_theta_del2           =   5.0716823125169E-02
(PID.TID 0000.0001) %MON dynstat_salt_max             =   3.7401749862310E+01
(PID.TID 0000.0001) %MON dynstat_salt_min             =   3.4726797966194E+01
(PID.TID 0000.0001) %MON dynstat_salt_mean            =   3.5157560967918E+01
(PID.TID 0000.0001) %MON dynstat_salt_sd              =   4.1378053278257E-01
(PID.TID 0000.0001) %MON dynstat_salt_del2            =   1.2628514695505E-02
(PID.TID 0000.0001) %MON advcfl_uvel_max              =   3.0373548636717E-03
(PID.TID 0000.0001) %MON advcfl_vvel_max              =   2.0562838451637E-03
(PID.TID 0000.0001) %MON advcfl_wvel_max              =   6.3534516976895E-03
(PID.TID 0000.0001) %MON advcfl_W_hf_max              =   8.2818757944620E-03
(PID.TID 0000.0001) %MON ke_max                       =   1.2825165901135E-02
(PID.TID 0000.0001) %MON ke_mean                      =   3.5127371198301E-04
(PID.TID 0000.0001) %MON ke_volint                    =   1.6887295560080E+12
(PID.TID 0000.0001) %MON ke_volmean                   =   4.6873365737250E-05
(PID.TID 0000.0001) // =======================================================
(PID.TID 0000.0001) // End MONITOR dynamic field statistics
(PID.TID 0000.0001) // =======================================================
 cg2d: Sum(rhs),rhsMax =  -4.30211422042248E-16  5.94932676326394E-01
(PID.TID 0000.0001)                    cg2d_init_res =    2.04039839801485E-01
(PID.TID 0000.0001)                       cg2d_iters =    47
(PID.TID 0000.0001)                         cg2d_res =    3.87188769839989E-14
(PID.TID 0000.0001) // =======================================================
(PID.TID 0000.0001) // Begin MONITOR dynamic field statistics
(PID.TID 0000.0001) // =======================================================
(PID.TID 0000.0001) %MON time_tsnumber                =                     8
(PID.TID 0000.0001) %MON time_secondsf                =   2.8800000000000E+04
(PID.TID 0000.0001) %MON time_secondsi                =                 28800
(PID.TID 0000.0001) %MON dynstat_eta_max              =   1.6654868364059E-01
(PID.TID 0000.0001) %MON dynstat_eta_min              =  -2.5257947890772E-01
(PID.TID 0000.0001) %MON dynstat_eta_mean             =   2.2840126319810E-17
(PID.TID 0000.0001) %MON dynstat_eta_sd               =   8.6936268953098E-02
(PID.TID 0000.0001) %MON dynstat_eta_del2             =   4.6354984931930E-03
(PID.TID 0000.0001) %MON dynstat_uvel_max             =   1.2081176763333E-01
(PID.TID 0000.0001) %MON dynstat_uvel_min             =  -1.7216925722601E-01
(PID.TID 0000.0001) %MON dynstat_uvel_mean            =   5.6371031827396E-04
(PID.TID 0000.0001) %MON dynstat_uvel_sd              =   8.1886960829858E-03
(PID.TID 0000.0001) %MON dynstat_uvel_del2            =   2.9838412229073E-03
(PID.TID 0000.0001) %MON dynstat_vvel_max             =   5.2723653106335E-02
(PID.TID 0000.0001) %MON dynstat_vvel_min             =  -1.2620451824197E-01
(PID.TID 0000.0001) %MON dynstat_vvel_mean            =  -3.4799315936307E-05
(PID.TID 0000.0001) %MON dynstat_vvel_sd              =   7.1861723901030E-03
(PID.TID 0000.0001) %MON dynstat_vvel_del2            =   2.4509869610146E-03
(PID.TID 0000.0001) %MON dynstat_wvel_max             =   1.3827799346529E-04
(PID.TID 0000.0001) %MON dynstat_wvel_min             =  -1.5784456829794E-04
(PID.TID 0000.0001) %MON dynstat_wvel_mean            =   4.7680560067195E-23
(PID.TID 0000.0001) %MON dynstat_wvel_sd              =   3.6483116345742E-05
(PID.TID 0000.0001) %MON dynstat_wvel_del2            =   8.7175626675168E-06
(PID.TID 0000.0001) %MON dynstat_theta_max            =   2.6088410869790E+01
(PID.TID 0000.0001) %MON dynstat_theta_min            =   1.8064487561209E+00
(PID.TID 0000.0001) %MON dynstat_theta_mean           =   5.4785176954248E+00
(PID.TID 0000.0001) %MON dynstat_theta_sd             =   4.5927440281752E+00
(PID.TID 0000.0001) %MON dynstat_theta_del2           =   5.0706817625398E-02
(PID.TID 0000.0001) %MON dynstat_salt_max             =   3.7402020372604E+01
(PID.TID 0000.0001) %MON dynstat_salt_min             =   3.4726798685854E+01
(PID.TID 0000.0001) %MON dynstat_salt_mean            =   3.5157562896989E+01
(PID.TID 0000.0001) %MON dynstat_salt_sd              =   4.1378547972310E-01
(PID.TID 0000.0001) %MON dynstat_salt_del2            =   1.2629417587205E-02
(PID.TID 0000.0001) %MON advcfl_uvel_max              =   2.8858086637124E-03
(PID.TID 0000.0001) %MON advcfl_vvel_max              =   2.0432928181073E-03
(PID.TID 0000.0001) %MON advcfl_wvel_max              =   6.3626763446984E-03
(PID.TID 0000.0001) %MON advcfl_W_hf_max              =   1.0476338672937E-02
(PID.TID 0000.0001) %MON ke_max                       =   1.4783486032716E-02
(PID.TID 0000.0001) %MON ke_mean                      =   4.0228134184164E-04
(PID.TID 0000.0001) %MON ke_volint                    =   1.9099522485884E+12
(PID.TID 0000.0001) %MON ke_volmean                   =   5.3013752243667E-05
(PID.TID 0000.0001) // =======================================================
(PID.TID 0000.0001) // End MONITOR dynamic field statistics
(PID.TID 0000.0001) // =======================================================
 cg2d: Sum(rhs),rhsMax =  -3.49026363366534E-15  5.77956526127103E-01
(PID.TID 0000.0001)                    cg2d_init_res =    1.56306332698481E-01
(PID.TID 0000.0001)                       cg2d_iters =    46
(PID.TID 0000.0001)                         cg2d_res =    6.18809624122694E-14
(PID.TID 0000.0001) // =======================================================
(PID.TID 0000.0001) // Begin MONITOR dynamic field statistics
(PID.TID 0000.0001) // =======================================================
(PID.TID 0000.0001) %MON time_tsnumber                =                     9
(PID.TID 0000.0001) %MON time_secondsf                =   3.2400000000000E+04
(PID.TID 0000.0001) %MON time_secondsi                =                 32400
(PID.TID 0000.0001) %MON dynstat_eta_max              =   1.5757371852431E-01
(PID.TID 0000.0001) %MON dynstat_eta_min              =  -2.3627632171405E-01
(PID.TID 0000.0001) %MON dynstat_eta_mean             =   1.3101414752552E-17
(PID.TID 0000.0001) %MON dynstat_eta_sd               =   8.0241779621104E-02
(PID.TID 0000.0001) %MON dynstat_eta_del2             =   4.6097272801593E-03
(PID.TID 0000.0001) %MON dynstat_uvel_max             =   9.4734070124252E-02
(PID.TID 0000.0001) %MON dynstat_uvel_min             =  -1.8182141707520E-01
(PID.TID 0000.0001) %MON dynstat_uvel_mean            =   4.0525451085212E-04
(PID.TID 0000.0001) %MON dynstat_uvel_sd              =   8.7446565007245E-03
(PID.TID 0000.0001) %MON dynstat_uvel_del2            =   3.2466843405407E-03
(PID.TID 0000.0001) %MON dynstat_vvel_max             =   6.1598954863892E-02
(PID.TID 0000.0001) %MON dynstat_vvel_min             =  -1.2372421807774E-01
(PID.TID 0000.0001) %MON dynstat_vvel_mean            =   2.5727206294042E-04
(PID.TID 0000.0001) %MON dynstat_vvel_sd              =   7.2817953324042E-03
(PID.TID 0000.0001) %MON dynstat_vvel_del2            =   2.3273736392407E-03
(PID.TID 0000.0001) %MON dynstat_wvel_max             =   1.3877310712692E-04
(PID.TID 0000.0001) %MON dynstat_wvel_min             =  -1.6481709262915E-04
(PID.TID 0000.0001) %MON dynstat_wvel_mean            =  -4.4763650880461E-22
(PID.TID 0000.0001) %MON dynstat_wvel_sd              =   3.6261921895093E-05
(PID.TID 0000.0001) %MON dynstat_wvel_del2            =   8.3395399326147E-06
(PID.TID 0000.0001) %MON dynstat_theta_max            =   2.6095218439249E+01
(PID.TID 0000.0001) %MON dynstat_theta_min            =   1.8064508967732E+00
(PID.TID 0000.0001) %MON dynstat_theta_mean           =   5.4785378851523E+00
(PID.TID 0000.0001) %MON dynstat_theta_sd             =   4.5928118660247E+00
(PID.TID 0000.0001) %MON dynstat_theta_del2           =   5.0707402309387E-02
(PID.TID 0000.0001) %MON dynstat_salt_max             =   3.7402302817935E+01
(PID.TID 0000.0001) %MON dynstat_salt_min             =   3.4726799229148E+01
(PID.TID 0000.0001) %MON dynstat_salt_mean            =   3.5157564475805E+01
(PID.TID 0000.0001) %MON dynstat_salt_sd              =   4.1378953679857E-01
(PID.TID 0000.0001) %MON dynstat_salt_del2            =   1.2630629643355E-02
(PID.TID 0000.0001) %MON advcfl_uvel_max              =   3.0475929855194E-03
(PID.TID 0000.0001) %MON advcfl_vvel_max              =   2.0031359395510E-03
(PID.TID 0000.0001) %MON advcfl_wvel_max              =   5.5790383181182E-03
(PID.TID 0000.0001) %MON advcfl_W_hf_max              =   1.1158076636236E-02
(PID.TID 0000.0001) %MON ke_max                       =   1.6584908625546E-02
(PID.TID 0000.0001) %MON ke_mean                      =   4.4492014642404E-04
(PID.TID 0000.0001) %MON ke_volint                    =   2.0830911883008E+12
(PID.TID 0000.0001) %MON ke_volmean                   =   5.7819497968688E-05
(PID.TID 0000.0001) // =======================================================
(PID.TID 0000.0001) // End MONITOR dynamic field statistics
(PID.TID 0000.0001) // =======================================================
 cg2d: Sum(rhs),rhsMax =  -5.21110932183433E-15  5.63257302732808E-01
(PID.TID 0000.0001)                    cg2d_init_res =    1.44645357483240E-01
(PID.TID 0000.0001)                       cg2d_iters =    46
(PID.TID 0000.0001)                         cg2d_res =    8.83093219095673E-14
(PID.TID 0000.0001) // =======================================================
(PID.TID 0000.0001) // Begin MONITOR dynamic field statistics
(PID.TID 0000.0001) // =======================================================
(PID.TID 0000.0001) %MON time_tsnumber                =                    10
(PID.TID 0000.0001) %MON time_secondsf                =   3.6000000000000E+04
(PID.TID 0000.0001) %MON time_secondsi                =                 36000
(PID.TID 0000.0001) %MON dynstat_eta_max              =   1.5079363045293E-01
(PID.TID 0000.0001) %MON dynstat_eta_min              =  -2.2243263081613E-01
(PID.TID 0000.0001) %MON dynstat_eta_mean             =   1.5466288783200E-17
(PID.TID 0000.0001) %MON dynstat_eta_sd               =   7.4949871335721E-02
(PID.TID 0000.0001) %MON dynstat_eta_del2             =   4.5693331402887E-03
(PID.TID 0000.0001) %MON dynstat_uvel_max             =   6.9217364415994E-02
(PID.TID 0000.0001) %MON dynstat_uvel_min             =  -1.9159267556841E-01
(PID.TID 0000.0001) %MON dynstat_uvel_mean            =   2.2123188500553E-04
(PID.TID 0000.0001) %MON dynstat_uvel_sd              =   9.1720295048794E-03
(PID.TID 0000.0001) %MON dynstat_uvel_del2            =   3.4444089818122E-03
(PID.TID 0000.0001) %MON dynstat_vvel_max             =   6.8875057040560E-02
(PID.TID 0000.0001) %MON dynstat_vvel_min             =  -1.2587468472352E-01
(PID.TID 0000.0001) %MON dynstat_vvel_mean            =   4.1695935029600E-04
(PID.TID 0000.0001) %MON dynstat_vvel_sd              =   7.2970559920184E-03
(PID.TID 0000.0001) %MON dynstat_vvel_del2            =   2.2005594314178E-03
(PID.TID 0000.0001) %MON dynstat_wvel_max             =   1.4562806530859E-04
(PID.TID 0000.0001) %MON dynstat_wvel_min             =  -1.6669426954207E-04
(PID.TID 0000.0001) %MON dynstat_wvel_mean            =   4.3408537476562E-22
(PID.TID 0000.0001) %MON dynstat_wvel_sd              =   3.5411798391192E-05
(PID.TID 0000.0001) %MON dynstat_wvel_del2            =   7.8083723682344E-06
(PID.TID 0000.0001) %MON dynstat_theta_max            =   2.6102081647933E+01
(PID.TID 0000.0001) %MON dynstat_theta_min            =   1.8064529061830E+00
(PID.TID 0000.0001) %MON dynstat_theta_mean           =   5.4785587106488E+00
(PID.TID 0000.0001) %MON dynstat_theta_sd             =   4.5928822386829E+00
(PID.TID 0000.0001) %MON dynstat_theta_del2           =   5.0719110595141E-02
(PID.TID 0000.0001) %MON dynstat_salt_max             =   3.7402601293993E+01
(PID.TID 0000.0001) %MON dynstat_salt_min             =   3.4726799930613E+01
(PID.TID 0000.0001) %MON dynstat_salt_mean            =   3.5157565725544E+01
(PID.TID 0000.0001) %MON dynstat_salt_sd              =   4.1379270500057E-01
(PID.TID 0000.0001) %MON dynstat_salt_del2            =   1.2632469797982E-02
(PID.TID 0000.0001) %MON advcfl_uvel_max              =   3.2436821572610E-03
(PID.TID 0000.0001) %MON advcfl_vvel_max              =   2.0379527045457E-03
(PID.TID 0000.0001) %MON advcfl_wvel_max              =   5.4010843924863E-03
(PID.TID 0000.0001) %MON advcfl_W_hf_max              =   1.0802168784973E-02
(PID.TID 0000.0001) %MON ke_max                       =   1.8088566925762E-02
(PID.TID 0000.0001) %MON ke_mean                      =   4.8022862946449E-04
(PID.TID 0000.0001) %MON ke_volint                    =   2.2106533869445E+12
(PID.TID 0000.0001) %MON ke_volmean                   =   6.1360188998818E-05
(PID.TID 0000.0001) // =======================================================
(PID.TID 0000.0001) // End MONITOR dynamic field statistics
(PID.TID 0000.0001) // =======================================================
 cg2d: Sum(rhs),rhsMax =   8.67361737988404E-17  5.52256128031430E-01
(PID.TID 0000.0001)                    cg2d_init_res =    1.38278665439780E-01
(PID.TID 0000.0001)                       cg2d_iters =    45
(PID.TID 0000.0001)                         cg2d_res =    7.06973607768306E-14
(PID.TID 0000.0001) // =======================================================
(PID.TID 0000.0001) // Begin MONITOR dynamic field statistics
(PID.TID 0000.0001) // =======================================================
(PID.TID 0000.0001) %MON time_tsnumber                =                    11
(PID.TID 0000.0001) %MON time_secondsf                =   3.9600000000000E+04
(PID.TID 0000.0001) %MON time_secondsi                =                 39600
(PID.TID 0000.0001) %MON dynstat_eta_max              =   1.4688217901665E-01
(PID.TID 0000.0001) %MON dynstat_eta_min              =  -2.1251800217282E-01
(PID.TID 0000.0001) %MON dynstat_eta_mean             =   2.0515897575411E-17
(PID.TID 0000.0001) %MON dynstat_eta_sd               =   7.1858650897429E-02
(PID.TID 0000.0001) %MON dynstat_eta_del2             =   4.5420362257398E-03
(PID.TID 0000.0001) %MON dynstat_uvel_max             =   4.8753778819274E-02
(PID.TID 0000.0001) %MON dynstat_uvel_min             =  -2.0225754545260E-01
(PID.TID 0000.0001) %MON dynstat_uvel_mean            =   6.2697633597938E-05
(PID.TID 0000.0001) %MON dynstat_uvel_sd              =   9.4761615886046E-03
(PID.TID 0000.0001) %MON dynstat_uvel_del2            =   3.5600007015058E-03
(PID.TID 0000.0001) %MON dynstat_vvel_max             =   7.3981567195612E-02
(PID.TID 0000.0001) %MON dynstat_vvel_min             =  -1.3194039109125E-01
(PID.TID 0000.0001) %MON dynstat_vvel_mean            =   4.2420072681334E-04
(PID.TID 0000.0001) %MON dynstat_vvel_sd              =   7.2596126272526E-03
(PID.TID 0000.0001) %MON dynstat_vvel_del2            =   2.1304860754218E-03
(PID.TID 0000.0001) %MON dynstat_wvel_max             =   1.4994091536350E-04
(PID.TID 0000.0001) %MON dynstat_wvel_min             =  -1.6350851213678E-04
(PID.TID 0000.0001) %MON dynstat_wvel_mean            =   8.5302205601568E-23
(PID.TID 0000.0001) %MON dynstat_wvel_sd              =   3.4339991889091E-05
(PID.TID 0000.0001) %MON dynstat_wvel_del2            =   7.2723175580536E-06
(PID.TID 0000.0001) %MON dynstat_theta_max            =   2.6108935196024E+01
(PID.TID 0000.0001) %MON dynstat_theta_min            =   1.8064548070524E+00
(PID.TID 0000.0001) %MON dynstat_theta_mean           =   5.4785791429683E+00
(PID.TID 0000.0001) %MON dynstat_theta_sd             =   4.5929512877766E+00
(PID.TID 0000.0001) %MON dynstat_theta_del2           =   5.0743107640101E-02
(PID.TID 0000.0001) %MON dynstat_salt_max             =   3.7402918022664E+01
(PID.TID 0000.0001) %MON dynstat_salt_min             =   3.4726801122118E+01
(PID.TID 0000.0001) %MON dynstat_salt_mean            =   3.5157566778531E+01
(PID.TID 0000.0001) %MON dynstat_salt_sd              =   4.1379528880091E-01
(PID.TID 0000.0001) %MON dynstat_salt_del2            =   1.2634933037398E-02
(PID.TID 0000.0001) %MON advcfl_uvel_max              =   3.4242394152575E-03
(PID.TID 0000.0001) %MON advcfl_vvel_max              =   2.1361584932969E-03
(PID.TID 0000.0001) %MON advcfl_wvel_max              =   4.9018788030928E-03
(PID.TID 0000.0001) %MON advcfl_W_hf_max              =   9.8037576061856E-03
(PID.TID 0000.0001) %MON ke_max                       =   1.9369972710717E-02
(PID.TID 0000.0001) %MON ke_mean                      =   5.0785624197732E-04
(PID.TID 0000.0001) %MON ke_volint                    =   2.2933955543253E+12
(PID.TID 0000.0001) %MON ke_volmean                   =   6.3656829014225E-05
(PID.TID 0000.0001) // =======================================================
(PID.TID 0000.0001) // End MONITOR dynamic field statistics
(PID.TID 0000.0001) // =======================================================
 cg2d: Sum(rhs),rhsMax =  -3.37750660772684E-15  5.45298001165453E-01
(PID.TID 0000.0001)                    cg2d_init_res =    1.16565788955183E-01
(PID.TID 0000.0001)                       cg2d_iters =    45
(PID.TID 0000.0001)                         cg2d_res =    6.83063958626967E-14
(PID.TID 0000.0001) // =======================================================
(PID.TID 0000.0001) // Begin MONITOR dynamic field statistics
(PID.TID 0000.0001) // =======================================================
(PID.TID 0000.0001) %MON time_tsnumber                =                    12
(PID.TID 0000.0001) %MON time_secondsf                =   4.3200000000000E+04
(PID.TID 0000.0001) %MON time_secondsi                =                 43200
(PID.TID 0000.0001) %MON dynstat_eta_max              =   1.4574302880622E-01
(PID.TID 0000.0001) %MON dynstat_eta_min              =  -2.0704057724615E-01
(PID.TID 0000.0001) %MON dynstat_eta_mean             =   4.9649942263241E-18
(PID.TID 0000.0001) %MON dynstat_eta_sd               =   7.0998862602819E-02
(PID.TID 0000.0001) %MON dynstat_eta_del2             =   4.5374215753258E-03
(PID.TID 0000.0001) %MON dynstat_uvel_max             =   4.6111582021329E-02
(PID.TID 0000.0001) %MON dynstat_uvel_min             =  -2.0998523556746E-01
(PID.TID 0000.0001) %MON dynstat_uvel_mean            =  -5.1348918580643E-05
(PID.TID 0000.0001) %MON dynstat_uvel_sd              =   9.6655552158014E-03
(PID.TID 0000.0001) %MON dynstat_uvel_del2            =   3.5835291437939E-03
(PID.TID 0000.0001) %MON dynstat_vvel_max             =   7.6773775568516E-02
(PID.TID 0000.0001) %MON dynstat_vvel_min             =  -1.3654734844060E-01
(PID.TID 0000.0001) %MON dynstat_vvel_mean            =   3.1231474775056E-04
(PID.TID 0000.0001) %MON dynstat_vvel_sd              =   7.1862783109041E-03
(PID.TID 0000.0001) %MON dynstat_vvel_del2            =   2.1424388605982E-03
(PID.TID 0000.0001) %MON dynstat_wvel_max             =   1.5170809285005E-04
(PID.TID 0000.0001) %MON dynstat_wvel_min             =  -1.5549558509780E-04
(PID.TID 0000.0001) %MON dynstat_wvel_mean            =   1.7949681966290E-22
(PID.TID 0000.0001) %MON dynstat_wvel_sd              =   3.3374376579540E-05
(PID.TID 0000.0001) %MON dynstat_wvel_del2            =   6.8678389410390E-06
(PID.TID 0000.0001) %MON dynstat_theta_max            =   2.6115712327210E+01
(PID.TID 0000.0001) %MON dynstat_theta_min            =   1.8064566492904E+00
(PID.TID 0000.0001) %MON dynstat_theta_mean           =   5.4785983523056E+00
(PID.TID 0000.0001) %MON dynstat_theta_sd             =   4.5930158625460E+00
(PID.TID 0000.0001) %MON dynstat_theta_del2           =   5.0779455847056E-02
(PID.TID 0000.0001) %MON dynstat_salt_max             =   3.7403252839449E+01
(PID.TID 0000.0001) %MON dynstat_salt_min             =   3.4726803102633E+01
(PID.TID 0000.0001) %MON dynstat_salt_mean            =   3.5157567795031E+01
(PID.TID 0000.0001) %MON dynstat_salt_sd              =   4.1379770444628E-01
(PID.TID 0000.0001) %MON dynstat_salt_del2            =   1.2638774409486E-02
(PID.TID 0000.0001) %MON advcfl_uvel_max              =   3.5550699413621E-03
(PID.TID 0000.0001) %MON advcfl_vvel_max              =   2.2107466538191E-03
(PID.TID 0000.0001) %MON advcfl_wvel_max              =   4.4913449848673E-03
(PID.TID 0000.0001) %MON advcfl_W_hf_max              =   8.4771277402971E-03
(PID.TID 0000.0001) %MON ke_max                       =   2.1296995911252E-02
(PID.TID 0000.0001) %MON ke_mean                      =   5.2750097711784E-04
(PID.TID 0000.0001) %MON ke_volint                    =   2.3341169928846E+12
(PID.TID 0000.0001) %MON ke_volmean                   =   6.4787117091524E-05
(PID.TID 0000.0001) // =======================================================
(PID.TID 0000.0001) // End MONITOR dynamic field statistics
(PID.TID 0000.0001) // =======================================================
 S/R EXTERNAL_FIELDS_LOAD: Reading new data  43200. 12
(PID.TID 0000.0001)  MDSREADFIELD: opening global file: kf_fu
(PID.TID 0000.0001)  MDSREADFIELD: opening global file: kf_fu
(PID.TID 0000.0001)  MDSREADFIELD: opening global file: kf_fv
(PID.TID 0000.0001)  MDSREADFIELD: opening global file: kf_fv
(PID.TID 0000.0001)  MDSREADFIELD: opening global file: kf_qnet
(PID.TID 0000.0001)  MDSREADFIELD: opening global file: kf_qnet
(PID.TID 0000.0001)  MDSREADFIELD: opening global file: kf_empmr
(PID.TID 0000.0001)  MDSREADFIELD: opening global file: kf_empmr
(PID.TID 0000.0001)  MDSREADFIELD: opening global file: kf_sst
(PID.TID 0000.0001)  MDSREADFIELD: opening global file: kf_sst
(PID.TID 0000.0001)  MDSREADFIELD: opening global file: kf_sss
(PID.TID 0000.0001)  MDSREADFIELD: opening global file: kf_sss
(PID.TID 0000.0001)  MDSREADFIELD: opening global file: kf_sw
(PID.TID 0000.0001)  MDSREADFIELD: opening global file: kf_sw
 cg2d: Sum(rhs),rhsMax =  -1.47104550762833E-15  5.42106080046683E-01
(PID.TID 0000.0001)                    cg2d_init_res =    9.01764088624262E-02
(PID.TID 0000.0001)                       cg2d_iters =    45
(PID.TID 0000.0001)                         cg2d_res =    8.97008166894202E-14
(PID.TID 0000.0001) // =======================================================
(PID.TID 0000.0001) // Begin MONITOR dynamic field statistics
(PID.TID 0000.0001) // =======================================================
(PID.TID 0000.0001) %MON time_tsnumber                =                    13
(PID.TID 0000.0001) %MON time_secondsf                =   4.6800000000000E+04
(PID.TID 0000.0001) %MON time_secondsi                =                 46800
(PID.TID 0000.0001) %MON dynstat_eta_max              =   1.4671820797374E-01
(PID.TID 0000.0001) %MON dynstat_eta_min              =  -2.0578747274694E-01
(PID.TID 0000.0001) %MON dynstat_eta_mean             =   1.1580708815079E-17
(PID.TID 0000.0001) %MON dynstat_eta_sd               =   7.1731972186844E-02
(PID.TID 0000.0001) %MON dynstat_eta_del2             =   4.5531429454056E-03
(PID.TID 0000.0001) %MON dynstat_uvel_max             =   4.5572823185904E-02
(PID.TID 0000.0001) %MON dynstat_uvel_min             =  -2.1344112026318E-01
(PID.TID 0000.0001) %MON dynstat_uvel_mean            =  -1.2066110727609E-04
(PID.TID 0000.0001) %MON dynstat_uvel_sd              =   9.7462315618695E-03
(PID.TID 0000.0001) %MON dynstat_uvel_del2            =   3.5154718143613E-03
(PID.TID 0000.0001) %MON dynstat_vvel_max             =   7.7414971523838E-02
(PID.TID 0000.0001) %MON dynstat_vvel_min             =  -1.3955317393566E-01
(PID.TID 0000.0001) %MON dynstat_vvel_mean            =   1.4388371873699E-04
(PID.TID 0000.0001) %MON dynstat_vvel_sd              =   7.0824499955698E-03
(PID.TID 0000.0001) %MON dynstat_vvel_del2            =   2.2242506589685E-03
(PID.TID 0000.0001) %MON dynstat_wvel_max             =   1.5090555821357E-04
(PID.TID 0000.0001) %MON dynstat_wvel_min             =  -1.5152352519071E-04
(PID.TID 0000.0001) %MON dynstat_wvel_mean            =   8.1287913447320E-23
(PID.TID 0000.0001) %MON dynstat_wvel_sd              =   3.2680868371068E-05
(PID.TID 0000.0001) %MON dynstat_wvel_del2            =   6.7347575184383E-06
(PID.TID 0000.0001) %MON dynstat_theta_max            =   2.6122368870974E+01
(PID.TID 0000.0001) %MON dynstat_theta_min            =   1.8064584952313E+00
(PID.TID 0000.0001) %MON dynstat_theta_mean           =   5.4786159207447E+00
(PID.TID 0000.0001) %MON dynstat_theta_sd             =   4.5930743520486E+00
(PID.TID 0000.0001) %MON dynstat_theta_del2           =   5.0829732812509E-02
(PID.TID 0000.0001) %MON dynstat_salt_max             =   3.7403603067319E+01
(PID.TID 0000.0001) %MON dynstat_salt_min             =   3.4726806065799E+01
(PID.TID 0000.0001) %MON dynstat_salt_mean            =   3.5157568895298E+01
(PID.TID 0000.0001) %MON dynstat_salt_sd              =   4.1380028717875E-01
(PID.TID 0000.0001) %MON dynstat_salt_del2            =   1.2642093126870E-02
(PID.TID 0000.0001) %MON advcfl_uvel_max              =   3.6135783968228E-03
(PID.TID 0000.0001) %MON advcfl_vvel_max              =   2.2594119609895E-03
(PID.TID 0000.0001) %MON advcfl_wvel_max              =   4.3471065632980E-03
(PID.TID 0000.0001) %MON advcfl_W_hf_max              =   7.0433836848780E-03
(PID.TID 0000.0001) %MON ke_max                       =   2.2862499487071E-02
(PID.TID 0000.0001) %MON ke_mean                      =   5.3834149766017E-04
(PID.TID 0000.0001) %MON ke_volint                    =   2.3350584082159E+12
(PID.TID 0000.0001) %MON ke_volmean                   =   6.4813247566340E-05
(PID.TID 0000.0001) // =======================================================
(PID.TID 0000.0001) // End MONITOR dynamic field statistics
(PID.TID 0000.0001) // =======================================================
 cg2d: Sum(rhs),rhsMax =  -3.78169717762944E-16  5.41934961991136E-01
(PID.TID 0000.0001)                    cg2d_init_res =    7.96145916265525E-02
(PID.TID 0000.0001)                       cg2d_iters =    45
(PID.TID 0000.0001)                         cg2d_res =    9.05845499824903E-14
(PID.TID 0000.0001) // =======================================================
(PID.TID 0000.0001) // Begin MONITOR dynamic field statistics
(PID.TID 0000.0001) // =======================================================
(PID.TID 0000.0001) %MON time_tsnumber                =                    14
(PID.TID 0000.0001) %MON time_secondsf                =   5.0400000000000E+04
(PID.TID 0000.0001) %MON time_secondsi                =                 50400
(PID.TID 0000.0001) %MON dynstat_eta_max              =   1.4888181120536E-01
(PID.TID 0000.0001) %MON dynstat_eta_min              =  -2.0790915535498E-01
(PID.TID 0000.0001) %MON dynstat_eta_mean             =   6.9791238406486E-19
(PID.TID 0000.0001) %MON dynstat_eta_sd               =   7.3310251473942E-02
(PID.TID 0000.0001) %MON dynstat_eta_del2             =   4.5743182977774E-03
(PID.TID 0000.0001) %MON dynstat_uvel_max             =   4.3470965189892E-02
(PID.TID 0000.0001) %MON dynstat_uvel_min             =  -2.1477249937186E-01
(PID.TID 0000.0001) %MON dynstat_uvel_mean            =  -1.5278903839458E-04
(PID.TID 0000.0001) %MON dynstat_uvel_sd              =   9.7301965433657E-03
(PID.TID 0000.0001) %MON dynstat_uvel_del2            =   3.3607230748368E-03
(PID.TID 0000.0001) %MON dynstat_vvel_max             =   8.1052275108552E-02
(PID.TID 0000.0001) %MON dynstat_vvel_min             =  -1.4074264603872E-01
(PID.TID 0000.0001) %MON dynstat_vvel_mean            =  -1.7687734979367E-05
(PID.TID 0000.0001) %MON dynstat_vvel_sd              =   6.9468496981614E-03
(PID.TID 0000.0001) %MON dynstat_vvel_del2            =   2.3466783037482E-03
(PID.TID 0000.0001) %MON dynstat_wvel_max             =   1.4750788715549E-04
(PID.TID 0000.0001) %MON dynstat_wvel_min             =  -1.5893253660291E-04
(PID.TID 0000.0001) %MON dynstat_wvel_mean            =  -2.9185835973652E-22
(PID.TID 0000.0001) %MON dynstat_wvel_sd              =   3.2216163992905E-05
(PID.TID 0000.0001) %MON dynstat_wvel_del2            =   6.8165523371146E-06
(PID.TID 0000.0001) %MON dynstat_theta_max            =   2.6128822203126E+01
(PID.TID 0000.0001) %MON dynstat_theta_min            =   1.8064604100805E+00
(PID.TID 0000.0001) %MON dynstat_theta_mean           =   5.4786318993986E+00
(PID.TID 0000.0001) %MON dynstat_theta_sd             =   4.5931269736457E+00
(PID.TID 0000.0001) %MON dynstat_theta_del2           =   5.0895070598399E-02
(PID.TID 0000.0001) %MON dynstat_salt_max             =   3.7403965459746E+01
(PID.TID 0000.0001) %MON dynstat_salt_min             =   3.4726810055940E+01
(PID.TID 0000.0001) %MON dynstat_salt_mean            =   3.5157570132571E+01
(PID.TID 0000.0001) %MON dynstat_salt_sd              =   4.1380320134714E-01
(PID.TID 0000.0001) %MON dynstat_salt_del2            =   1.2644850020713E-02
(PID.TID 0000.0001) %MON advcfl_uvel_max              =   3.6336979416301E-03
(PID.TID 0000.0001) %MON advcfl_vvel_max              =   2.2786699070550E-03
(PID.TID 0000.0001) %MON advcfl_wvel_max              =   4.1581354955741E-03
(PID.TID 0000.0001) %MON advcfl_W_hf_max              =   6.0458178817276E-03
(PID.TID 0000.0001) %MON ke_max                       =   2.3986492239199E-02
(PID.TID 0000.0001) %MON ke_mean                      =   5.4111238195650E-04
(PID.TID 0000.0001) %MON ke_volint                    =   2.2997131172220E+12
(PID.TID 0000.0001) %MON ke_volmean                   =   6.3832182986785E-05
(PID.TID 0000.0001) // =======================================================
(PID.TID 0000.0001) // End MONITOR dynamic field statistics
(PID.TID 0000.0001) // =======================================================
 cg2d: Sum(rhs),rhsMax =  -1.44328993201270E-15  5.43849110922498E-01
(PID.TID 0000.0001)                    cg2d_init_res =    8.29647444393887E-02
(PID.TID 0000.0001)                       cg2d_iters =    45
(PID.TID 0000.0001)                         cg2d_res =    6.64305541108755E-14
(PID.TID 0000.0001) // =======================================================
(PID.TID 0000.0001) // Begin MONITOR dynamic field statistics
(PID.TID 0000.0001) // =======================================================
(PID.TID 0000.0001) %MON time_tsnumber                =                    15
(PID.TID 0000.0001) %MON time_secondsf                =   5.4000000000000E+04
(PID.TID 0000.0001) %MON time_secondsi                =                 54000
(PID.TID 0000.0001) %MON dynstat_eta_max              =   1.5127704537445E-01
(PID.TID 0000.0001) %MON dynstat_eta_min              =  -2.1224719653672E-01
(PID.TID 0000.0001) %MON dynstat_eta_mean             =   1.2446293523886E-17
(PID.TID 0000.0001) %MON dynstat_eta_sd               =   7.5168486433961E-02
(PID.TID 0000.0001) %MON dynstat_eta_del2             =   4.6033701453041E-03
(PID.TID 0000.0001) %MON dynstat_uvel_max             =   3.9991066317361E-02
(PID.TID 0000.0001) %MON dynstat_uvel_min             =  -2.1879743908420E-01
(PID.TID 0000.0001) %MON dynstat_uvel_mean            =  -1.5543921563495E-04
(PID.TID 0000.0001) %MON dynstat_uvel_sd              =   9.6243034919397E-03
(PID.TID 0000.0001) %MON dynstat_uvel_del2            =   3.1422857779383E-03
(PID.TID 0000.0001) %MON dynstat_vvel_max             =   8.3990072664723E-02
(PID.TID 0000.0001) %MON dynstat_vvel_min             =  -1.3989320469551E-01
(PID.TID 0000.0001) %MON dynstat_vvel_mean            =  -1.2744740724791E-04
(PID.TID 0000.0001) %MON dynstat_vvel_sd              =   6.7765797540004E-03
(PID.TID 0000.0001) %MON dynstat_vvel_del2            =   2.4370476251401E-03
(PID.TID 0000.0001) %MON dynstat_wvel_max             =   1.4155548378808E-04
(PID.TID 0000.0001) %MON dynstat_wvel_min             =  -1.6486549057325E-04
(PID.TID 0000.0001) %MON dynstat_wvel_mean            =  -7.4882219442894E-23
(PID.TID 0000.0001) %MON dynstat_wvel_sd              =   3.1773295793509E-05
(PID.TID 0000.0001) %MON dynstat_wvel_del2            =   6.9697860610772E-06
(PID.TID 0000.0001) %MON dynstat_theta_max            =   2.6135111123989E+01
(PID.TID 0000.0001) %MON dynstat_theta_min            =   1.8064624590906E+00
(PID.TID 0000.0001) %MON dynstat_theta_mean           =   5.4786466869450E+00
(PID.TID 0000.0001) %MON dynstat_theta_sd             =   4.5931751868335E+00
(PID.TID 0000.0001) %MON dynstat_theta_del2           =   5.0968962164946E-02
(PID.TID 0000.0001) %MON dynstat_salt_max             =   3.7404332408342E+01
(PID.TID 0000.0001) %MON dynstat_salt_min             =   3.4726814940045E+01
(PID.TID 0000.0001) %MON dynstat_salt_mean            =   3.5157571497057E+01
(PID.TID 0000.0001) %MON dynstat_salt_sd              =   4.1380644570571E-01
(PID.TID 0000.0001) %MON dynstat_salt_del2            =   1.2646863725019E-02
(PID.TID 0000.0001) %MON advcfl_uvel_max              =   3.6819038965428E-03
(PID.TID 0000.0001) %MON advcfl_vvel_max              =   2.2649171712563E-03
(PID.TID 0000.0001) %MON advcfl_wvel_max              =   3.9789536116861E-03
(PID.TID 0000.0001) %MON advcfl_W_hf_max              =   6.6156194774779E-03
(PID.TID 0000.0001) %MON ke_max                       =   2.4839873299837E-02
(PID.TID 0000.0001) %MON ke_mean                      =   5.3613844016747E-04
(PID.TID 0000.0001) %MON ke_volint                    =   2.2297618132924E+12
(PID.TID 0000.0001) %MON ke_volmean                   =   6.1890573662059E-05
(PID.TID 0000.0001) // =======================================================
(PID.TID 0000.0001) // End MONITOR dynamic field statistics
(PID.TID 0000.0001) // =======================================================
 cg2d: Sum(rhs),rhsMax =  -9.29811783123569E-16  5.46920352905009E-01
(PID.TID 0000.0001)                    cg2d_init_res =    8.43607048972062E-02
(PID.TID 0000.0001)                       cg2d_iters =    44
(PID.TID 0000.0001)                         cg2d_res =    7.59961020004375E-14
(PID.TID 0000.0001) // =======================================================
(PID.TID 0000.0001) // Begin MONITOR dynamic field statistics
(PID.TID 0000.0001) // =======================================================
(PID.TID 0000.0001) %MON time_tsnumber                =                    16
(PID.TID 0000.0001) %MON time_secondsf                =   5.7600000000000E+04
(PID.TID 0000.0001) %MON time_secondsi                =                 57600
(PID.TID 0000.0001) %MON dynstat_eta_max              =   1.5316399434251E-01
(PID.TID 0000.0001) %MON dynstat_eta_min              =  -2.1737722695039E-01
(PID.TID 0000.0001) %MON dynstat_eta_mean             =   4.2271939215928E-18
(PID.TID 0000.0001) %MON dynstat_eta_sd               =   7.6891866779428E-02
(PID.TID 0000.0001) %MON dynstat_eta_del2             =   4.6405430459559E-03
(PID.TID 0000.0001) %MON dynstat_uvel_max             =   3.5666593956884E-02
(PID.TID 0000.0001) %MON dynstat_uvel_min             =  -2.2089706357143E-01
(PID.TID 0000.0001) %MON dynstat_uvel_mean            =  -1.3666619750481E-04
(PID.TID 0000.0001) %MON dynstat_uvel_sd              =   9.4384193860131E-03
(PID.TID 0000.0001) %MON dynstat_uvel_del2            =   2.8807661979552E-03
(PID.TID 0000.0001) %MON dynstat_vvel_max             =   8.8869997189548E-02
(PID.TID 0000.0001) %MON dynstat_vvel_min             =  -1.3685898756606E-01
(PID.TID 0000.0001) %MON dynstat_vvel_mean            =  -1.6847493606521E-04
(PID.TID 0000.0001) %MON dynstat_vvel_sd              =   6.5783780020124E-03
(PID.TID 0000.0001) %MON dynstat_vvel_del2            =   2.4653741046332E-03
(PID.TID 0000.0001) %MON dynstat_wvel_max             =   1.3315465093835E-04
(PID.TID 0000.0001) %MON dynstat_wvel_min             =  -1.6931863315717E-04
(PID.TID 0000.0001) %MON dynstat_wvel_mean            =   4.2976968869776E-23
(PID.TID 0000.0001) %MON dynstat_wvel_sd              =   3.1102745823881E-05
(PID.TID 0000.0001) %MON dynstat_wvel_del2            =   6.9693990132304E-06
(PID.TID 0000.0001) %MON dynstat_theta_max            =   2.6141264395318E+01
(PID.TID 0000.0001) %MON dynstat_theta_min            =   1.8064646926732E+00
(PID.TID 0000.0001) %MON dynstat_theta_mean           =   5.4786608623418E+00
(PID.TID 0000.0001) %MON dynstat_theta_sd             =   4.5932211477180E+00
(PID.TID 0000.0001) %MON dynstat_theta_del2           =   5.1045586497244E-02
(PID.TID 0000.0001) %MON dynstat_salt_max             =   3.7404701896143E+01
(PID.TID 0000.0001) %MON dynstat_salt_min             =   3.4726820545600E+01
(PID.TID 0000.0001) %MON dynstat_salt_mean            =   3.5157572945071E+01
(PID.TID 0000.0001) %MON dynstat_salt_sd              =   4.1380992552744E-01
(PID.TID 0000.0001) %MON dynstat_salt_del2            =   1.2648579007120E-02
(PID.TID 0000.0001) %MON advcfl_uvel_max              =   3.7025579950447E-03
(PID.TID 0000.0001) %MON advcfl_vvel_max              =   2.2157921941513E-03
(PID.TID 0000.0001) %MON advcfl_wvel_max              =   4.1812786098275E-03
(PID.TID 0000.0001) %MON advcfl_W_hf_max              =   7.1289685616799E-03
(PID.TID 0000.0001) %MON ke_max                       =   2.5433273296408E-02
(PID.TID 0000.0001) %MON ke_mean                      =   5.2504264001341E-04
(PID.TID 0000.0001) %MON ke_volint                    =   2.1305050985108E+12
(PID.TID 0000.0001) %MON ke_volmean                   =   5.9135546205302E-05
(PID.TID 0000.0001) // =======================================================
(PID.TID 0000.0001) // End MONITOR dynamic field statistics
(PID.TID 0000.0001) // =======================================================
 cg2d: Sum(rhs),rhsMax =   9.67975699595058E-16  5.49958387053828E-01
(PID.TID 0000.0001)                    cg2d_init_res =    7.83790023399968E-02
(PID.TID 0000.0001)                       cg2d_iters =    44
(PID.TID 0000.0001)                         cg2d_res =    6.39509928728202E-14
(PID.TID 0000.0001) // =======================================================
(PID.TID 0000.0001) // Begin MONITOR dynamic field statistics
(PID.TID 0000.0001) // =======================================================
(PID.TID 0000.0001) %MON time_tsnumber                =                    17
(PID.TID 0000.0001) %MON time_secondsf                =   6.1200000000000E+04
(PID.TID 0000.0001) %MON time_secondsi                =                 61200
(PID.TID 0000.0001) %MON dynstat_eta_max              =   1.5413044518391E-01
(PID.TID 0000.0001) %MON dynstat_eta_min              =  -2.2194154111451E-01
(PID.TID 0000.0001) %MON dynstat_eta_mean             =   2.0362993879523E-17
(PID.TID 0000.0001) %MON dynstat_eta_sd               =   7.8160646615514E-02
(PID.TID 0000.0001) %MON dynstat_eta_del2             =   4.6831538223914E-03
(PID.TID 0000.0001) %MON dynstat_uvel_max             =   3.6327898545920E-02
(PID.TID 0000.0001) %MON dynstat_uvel_min             =  -2.2112778137426E-01
(PID.TID 0000.0001) %MON dynstat_uvel_mean            =  -1.0525612386274E-04
(PID.TID 0000.0001) %MON dynstat_uvel_sd              =   9.1822499098596E-03
(PID.TID 0000.0001) %MON dynstat_uvel_del2            =   2.6009047023330E-03
(PID.TID 0000.0001) %MON dynstat_vvel_max             =   1.0002661190137E-01
(PID.TID 0000.0001) %MON dynstat_vvel_min             =  -1.3172734840412E-01
(PID.TID 0000.0001) %MON dynstat_vvel_mean            =  -1.4859693913535E-04
(PID.TID 0000.0001) %MON dynstat_vvel_sd              =   6.3705354720250E-03
(PID.TID 0000.0001) %MON dynstat_vvel_del2            =   2.4120078243094E-03
(PID.TID 0000.0001) %MON dynstat_wvel_max             =   1.2252270275008E-04
(PID.TID 0000.0001) %MON dynstat_wvel_min             =  -1.7225652062270E-04
(PID.TID 0000.0001) %MON dynstat_wvel_mean            =  -4.7561848646805E-23
(PID.TID 0000.0001) %MON dynstat_wvel_sd              =   3.0041866107070E-05
(PID.TID 0000.0001) %MON dynstat_wvel_del2            =   6.7675556275990E-06
(PID.TID 0000.0001) %MON dynstat_theta_max            =   2.6147311847385E+01
(PID.TID 0000.0001) %MON dynstat_theta_min            =   1.8064671445489E+00
(PID.TID 0000.0001) %MON dynstat_theta_mean           =   5.4786749685125E+00
(PID.TID 0000.0001) %MON dynstat_theta_sd             =   4.5932668691845E+00
(PID.TID 0000.0001) %MON dynstat_theta_del2           =   5.1121685111392E-02
(PID.TID 0000.0001) %MON dynstat_salt_max             =   3.7405072206184E+01
(PID.TID 0000.0001) %MON dynstat_salt_min             =   3.4726826713837E+01
(PID.TID 0000.0001) %MON dynstat_salt_mean            =   3.5157574426618E+01
(PID.TID 0000.0001) %MON dynstat_salt_sd              =   4.1381352398038E-01
(PID.TID 0000.0001) %MON dynstat_salt_del2            =   1.2650065854651E-02
(PID.TID 0000.0001) %MON advcfl_uvel_max              =   3.7064251629991E-03
(PID.TID 0000.0001) %MON advcfl_vvel_max              =   2.1327092618539E-03
(PID.TID 0000.0001) %MON advcfl_wvel_max              =   4.5709916419168E-03
(PID.TID 0000.0001) %MON advcfl_W_hf_max              =   7.5435147163715E-03
(PID.TID 0000.0001) %MON ke_max                       =   2.5765689606557E-02
(PID.TID 0000.0001) %MON ke_mean                      =   5.0951040614838E-04
(PID.TID 0000.0001) %MON ke_volint                    =   2.0103234557182E+12
(PID.TID 0000.0001) %MON ke_volmean                   =   5.5799714202197E-05
(PID.TID 0000.0001) // =======================================================
(PID.TID 0000.0001) // End MONITOR dynamic field statistics
(PID.TID 0000.0001) // =======================================================
 cg2d: Sum(rhs),rhsMax =  -1.09981468376930E-15  5.51916221383540E-01
(PID.TID 0000.0001)                    cg2d_init_res =    6.92741259066564E-02
(PID.TID 0000.0001)                       cg2d_iters =    44
(PID.TID 0000.0001)                         cg2d_res =    8.64618959750557E-14
(PID.TID 0000.0001) // =======================================================
(PID.TID 0000.0001) // Begin MONITOR dynamic field statistics
(PID.TID 0000.0001) // =======================================================
(PID.TID 0000.0001) %MON time_tsnumber                =                    18
(PID.TID 0000.0001) %MON time_secondsf                =   6.4800000000000E+04
(PID.TID 0000.0001) %MON time_secondsi                =                 64800
(PID.TID 0000.0001) %MON dynstat_eta_max              =   1.5411148772872E-01
(PID.TID 0000.0001) %MON dynstat_eta_min              =  -2.2500255530777E-01
(PID.TID 0000.0001) %MON dynstat_eta_mean             =   3.2601348475209E-17
(PID.TID 0000.0001) %MON dynstat_eta_sd               =   7.8791626631657E-02
(PID.TID 0000.0001) %MON dynstat_eta_del2             =   4.7264636987764E-03
(PID.TID 0000.0001) %MON dynstat_uvel_max             =   3.5221300069171E-02
(PID.TID 0000.0001) %MON dynstat_uvel_min             =  -2.1957784082985E-01
(PID.TID 0000.0001) %MON dynstat_uvel_mean            =  -7.0825836791442E-05
(PID.TID 0000.0001) %MON dynstat_uvel_sd              =   8.8700840777018E-03
(PID.TID 0000.0001) %MON dynstat_uvel_del2            =   2.3470127339051E-03
(PID.TID 0000.0001) %MON dynstat_vvel_max             =   1.1134981750822E-01
(PID.TID 0000.0001) %MON dynstat_vvel_min             =  -1.2617400475592E-01
(PID.TID 0000.0001) %MON dynstat_vvel_mean            =  -9.0743720083551E-05
(PID.TID 0000.0001) %MON dynstat_vvel_sd              =   6.1817593903461E-03
(PID.TID 0000.0001) %MON dynstat_vvel_del2            =   2.2904069859488E-03
(PID.TID 0000.0001) %MON dynstat_wvel_max             =   1.0997000900549E-04
(PID.TID 0000.0001) %MON dynstat_wvel_min             =  -1.7361456522243E-04
(PID.TID 0000.0001) %MON dynstat_wvel_mean            =  -7.9906524676593E-23
(PID.TID 0000.0001) %MON dynstat_wvel_sd              =   2.8587139546912E-05
(PID.TID 0000.0001) %MON dynstat_wvel_del2            =   6.3410108263934E-06
(PID.TID 0000.0001) %MON dynstat_theta_max            =   2.6153275977991E+01
(PID.TID 0000.0001) %MON dynstat_theta_min            =   1.8064698323285E+00
(PID.TID 0000.0001) %MON dynstat_theta_mean           =   5.4786893704534E+00
(PID.TID 0000.0001) %MON dynstat_theta_sd             =   4.5933137049941E+00
(PID.TID 0000.0001) %MON dynstat_theta_del2           =   5.1195457501318E-02
(PID.TID 0000.0001) %MON dynstat_salt_max             =   3.7405441714814E+01
(PID.TID 0000.0001) %MON dynstat_salt_min             =   3.4726833344173E+01
(PID.TID 0000.0001) %MON dynstat_salt_mean            =   3.5157575903325E+01
(PID.TID 0000.0001) %MON dynstat_salt_sd              =   4.1381714707573E-01
(PID.TID 0000.0001) %MON dynstat_salt_del2            =   1.2651226934584E-02
(PID.TID 0000.0001) %MON advcfl_uvel_max              =   3.6804458916508E-03
(PID.TID 0000.0001) %MON advcfl_vvel_max              =   2.0427987946939E-03
(PID.TID 0000.0001) %MON advcfl_wvel_max              =   4.8582397027689E-03
(PID.TID 0000.0001) %MON advcfl_W_hf_max              =   7.8962184794058E-03
(PID.TID 0000.0001) %MON ke_max                       =   2.5831675461893E-02
(PID.TID 0000.0001) %MON ke_mean                      =   4.9159185004908E-04
(PID.TID 0000.0001) %MON ke_volint                    =   1.8811023156256E+12
(PID.TID 0000.0001) %MON ke_volmean                   =   5.2212976622462E-05
(PID.TID 0000.0001) // =======================================================
(PID.TID 0000.0001) // End MONITOR dynamic field statistics
(PID.TID 0000.0001) // =======================================================
 cg2d: Sum(rhs),rhsMax =  -1.43982048506075E-15  5.52147660664583E-01
(PID.TID 0000.0001)                    cg2d_init_res =    6.30180131909184E-02
(PID.TID 0000.0001)                       cg2d_iters =    44
(PID.TID 0000.0001)                         cg2d_res =    9.39098247862748E-14
(PID.TID 0000.0001) // =======================================================
(PID.TID 0000.0001) // Begin MONITOR dynamic field statistics
(PID.TID 0000.0001) // =======================================================
(PID.TID 0000.0001) %MON time_tsnumber                =                    19
(PID.TID 0000.0001) %MON time_secondsf                =   6.8400000000000E+04
(PID.TID 0000.0001) %MON time_secondsi                =                 68400
(PID.TID 0000.0001) %MON dynstat_eta_max              =   1.5332231714013E-01
(PID.TID 0000.0001) %MON dynstat_eta_min              =  -2.2623576250074E-01
(PID.TID 0000.0001) %MON dynstat_eta_mean             =   1.9888378114632E-17
(PID.TID 0000.0001) %MON dynstat_eta_sd               =   7.8797130622656E-02
(PID.TID 0000.0001) %MON dynstat_eta_del2             =   4.7695404192091E-03
(PID.TID 0000.0001) %MON dynstat_uvel_max             =   3.2498451531526E-02
(PID.TID 0000.0001) %MON dynstat_uvel_min             =  -2.1634823349527E-01
(PID.TID 0000.0001) %MON dynstat_uvel_mean            =  -4.2559273471658E-05
(PID.TID 0000.0001) %MON dynstat_uvel_sd              =   8.5216653562978E-03
(PID.TID 0000.0001) %MON dynstat_uvel_del2            =   2.1590502215660E-03
(PID.TID 0000.0001) %MON dynstat_vvel_max             =   1.2117383707195E-01
(PID.TID 0000.0001) %MON dynstat_vvel_min             =  -1.2033945673350E-01
(PID.TID 0000.0001) %MON dynstat_vvel_mean            =  -2.1827019810963E-05
(PID.TID 0000.0001) %MON dynstat_vvel_sd              =   6.0413550782542E-03
(PID.TID 0000.0001) %MON dynstat_vvel_del2            =   2.1433096374634E-03
(PID.TID 0000.0001) %MON dynstat_wvel_max             =   9.5869883873546E-05
(PID.TID 0000.0001) %MON dynstat_wvel_min             =  -1.7332113510818E-04
(PID.TID 0000.0001) %MON dynstat_wvel_mean            =   2.6151138439055E-22
(PID.TID 0000.0001) %MON dynstat_wvel_sd              =   2.6907746449646E-05
(PID.TID 0000.0001) %MON dynstat_wvel_del2            =   5.8141464377732E-06
(PID.TID 0000.0001) %MON dynstat_theta_max            =   2.6159168025477E+01
(PID.TID 0000.0001) %MON dynstat_theta_min            =   1.8064727610141E+00
(PID.TID 0000.0001) %MON dynstat_theta_mean           =   5.4787041978580E+00
(PID.TID 0000.0001) %MON dynstat_theta_sd             =   4.5933621284735E+00
(PID.TID 0000.0001) %MON dynstat_theta_del2           =   5.1261439370759E-02
(PID.TID 0000.0001) %MON dynstat_salt_max             =   3.7405808900259E+01
(PID.TID 0000.0001) %MON dynstat_salt_min             =   3.4726840408738E+01
(PID.TID 0000.0001) %MON dynstat_salt_mean            =   3.5157577355239E+01
(PID.TID 0000.0001) %MON dynstat_salt_sd              =   4.1382074209306E-01
(PID.TID 0000.0001) %MON dynstat_salt_del2            =   1.2652071815931E-02
(PID.TID 0000.0001) %MON advcfl_uvel_max              =   3.6263129472641E-03
(PID.TID 0000.0001) %MON advcfl_vvel_max              =   1.9618444290317E-03
(PID.TID 0000.0001) %MON advcfl_wvel_max              =   5.0240054516061E-03
(PID.TID 0000.0001) %MON advcfl_W_hf_max              =   8.0028028217041E-03
(PID.TID 0000.0001) %MON ke_max                       =   2.5623472006379E-02
(PID.TID 0000.0001) %MON ke_mean                      =   4.7313504602155E-04
(PID.TID 0000.0001) %MON ke_volint                    =   1.7554792511702E+12
(PID.TID 0000.0001) %MON ke_volmean                   =   4.8726109335569E-05
(PID.TID 0000.0001) // =======================================================
(PID.TID 0000.0001) // End MONITOR dynamic field statistics
(PID.TID 0000.0001) // =======================================================
 cg2d: Sum(rhs),rhsMax =  -5.08273978461204E-15  5.50497568611620E-01
(PID.TID 0000.0001)                    cg2d_init_res =    6.13181051018851E-02
(PID.TID 0000.0001)                       cg2d_iters =    44
(PID.TID 0000.0001)                         cg2d_res =    8.10452459353983E-14
(PID.TID 0000.0001) // =======================================================
(PID.TID 0000.0001) // Begin MONITOR dynamic field statistics
(PID.TID 0000.0001) // =======================================================
(PID.TID 0000.0001) %MON time_tsnumber                =                    20
(PID.TID 0000.0001) %MON time_secondsf                =   7.2000000000000E+04
(PID.TID 0000.0001) %MON time_secondsi                =                 72000
(PID.TID 0000.0001) %MON dynstat_eta_max              =   1.5213805221133E-01
(PID.TID 0000.0001) %MON dynstat_eta_min              =  -2.2591636360964E-01
(PID.TID 0000.0001) %MON dynstat_eta_mean             =   1.5569837488643E-17
(PID.TID 0000.0001) %MON dynstat_eta_sd               =   7.8375026595568E-02
(PID.TID 0000.0001) %MON dynstat_eta_del2             =   4.8094930494688E-03
(PID.TID 0000.0001) %MON dynstat_uvel_max             =   3.2066001864846E-02
(PID.TID 0000.0001) %MON dynstat_uvel_min             =  -2.1152928243967E-01
(PID.TID 0000.0001) %MON dynstat_uvel_mean            =  -2.7154690613434E-05
(PID.TID 0000.0001) %MON dynstat_uvel_sd              =   8.1620305924001E-03
(PID.TID 0000.0001) %MON dynstat_uvel_del2            =   2.0509704791177E-03
(PID.TID 0000.0001) %MON dynstat_vvel_max             =   1.2928219273692E-01
(PID.TID 0000.0001) %MON dynstat_vvel_min             =  -1.1437627373437E-01
(PID.TID 0000.0001) %MON dynstat_vvel_mean            =   3.5979112894971E-05
(PID.TID 0000.0001) %MON dynstat_vvel_sd              =   5.9690916524511E-03
(PID.TID 0000.0001) %MON dynstat_vvel_del2            =   2.0354543833919E-03
(PID.TID 0000.0001) %MON dynstat_wvel_max             =   8.0621833441525E-05
(PID.TID 0000.0001) %MON dynstat_wvel_min             =  -1.7150301724598E-04
(PID.TID 0000.0001) %MON dynstat_wvel_mean            =   3.9541170830175E-22
(PID.TID 0000.0001) %MON dynstat_wvel_sd              =   2.5307655872515E-05
(PID.TID 0000.0001) %MON dynstat_wvel_del2            =   5.3976018640642E-06
(PID.TID 0000.0001) %MON dynstat_theta_max            =   2.6164988164875E+01
(PID.TID 0000.0001) %MON dynstat_theta_min            =   1.8064759285569E+00
(PID.TID 0000.0001) %MON dynstat_theta_mean           =   5.4787193696513E+00
(PID.TID 0000.0001) %MON dynstat_theta_sd             =   4.5934118339585E+00
(PID.TID 0000.0001) %MON dynstat_theta_del2           =   5.1320191113629E-02
(PID.TID 0000.0001) %MON dynstat_salt_max             =   3.7406171910767E+01
(PID.TID 0000.0001) %MON dynstat_salt_min             =   3.4726847936652E+01
(PID.TID 0000.0001) %MON dynstat_salt_mean            =   3.5157578779064E+01
(PID.TID 0000.0001) %MON dynstat_salt_sd              =   4.1382429404822E-01
(PID.TID 0000.0001) %MON dynstat_salt_del2            =   1.2652718231764E-02
(PID.TID 0000.0001) %MON advcfl_uvel_max              =   3.5455402766358E-03
(PID.TID 0000.0001) %MON advcfl_vvel_max              =   2.0931213843078E-03
(PID.TID 0000.0001) %MON advcfl_wvel_max              =   5.1003666012176E-03
(PID.TID 0000.0001) %MON advcfl_W_hf_max              =   7.9516347375169E-03
(PID.TID 0000.0001) %MON ke_max                       =   2.5138241837596E-02
(PID.TID 0000.0001) %MON ke_mean                      =   4.5555252266720E-04
(PID.TID 0000.0001) %MON ke_volint                    =   1.6444139184776E+12
(PID.TID 0000.0001) %MON ke_volmean                   =   4.5643314970120E-05
(PID.TID 0000.0001) // =======================================================
(PID.TID 0000.0001) // End MONITOR dynamic field statistics
(PID.TID 0000.0001) // =======================================================
(PID.TID 0000.0001)   Seconds in section "ALL                [THE_MODEL_MAIN]":
(PID.TID 0000.0001)           User time:  5.88999987
(PID.TID 0000.0001)         System time:  0.239999995
(PID.TID 0000.0001)     Wall clock time:  6.15694404
(PID.TID 0000.0001)          No. starts: 1
(PID.TID 0000.0001)           No. stops: 1
(PID.TID 0000.0001)   Seconds in section "INITIALISE_FIXED   [THE_MODEL_MAIN]":
(PID.TID 0000.0001)           User time:  0.150000006
(PID.TID 0000.0001)         System time:  0.0199999996
(PID.TID 0000.0001)     Wall clock time:  0.170670033
(PID.TID 0000.0001)          No. starts: 1
(PID.TID 0000.0001)           No. stops: 1
(PID.TID 0000.0001)   Seconds in section "THE_MAIN_LOOP      [THE_MODEL_MAIN]":
(PID.TID 0000.0001)           User time:  5.59999999
(PID.TID 0000.0001)         System time:  0.150000002
(PID.TID 0000.0001)     Wall clock time:  5.77434492
(PID.TID 0000.0001)          No. starts: 1
(PID.TID 0000.0001)           No. stops: 1
(PID.TID 0000.0001)   Seconds in section "INITIALISE_VARIA    [THE_MAIN_LOOP]":
(PID.TID 0000.0001)           User time:  0.76000002
(PID.TID 0000.0001)         System time:  0.0599999987
(PID.TID 0000.0001)     Wall clock time:  0.81536603
(PID.TID 0000.0001)          No. starts: 1
(PID.TID 0000.0001)           No. stops: 1
(PID.TID 0000.0001)   Seconds in section "WRITE_STATE         [THE_MAIN_LOOP]":
(PID.TID 0000.0001)           User time:  0.00999999046
(PID.TID 0000.0001)         System time:  0.0399999991
(PID.TID 0000.0001)     Wall clock time:  0.0506700277
(PID.TID 0000.0001)          No. starts: 1
(PID.TID 0000.0001)           No. stops: 1
(PID.TID 0000.0001)   Seconds in section "MONITOR             [THE_MAIN_LOOP]":
(PID.TID 0000.0001)           User time:  0.00999999046
(PID.TID 0000.0001)         System time:  0.
(PID.TID 0000.0001)     Wall clock time:  0.0136469603
(PID.TID 0000.0001)          No. starts: 1
(PID.TID 0000.0001)           No. stops: 1
(PID.TID 0000.0001)   Seconds in section "MAIN LOOP           [THE_MAIN_LOOP]":
(PID.TID 0000.0001)           User time:  4.81999999
(PID.TID 0000.0001)         System time:  0.0500000045
(PID.TID 0000.0001)     Wall clock time:  4.89429092
(PID.TID 0000.0001)          No. starts: 1
(PID.TID 0000.0001)           No. stops: 1
(PID.TID 0000.0001)   Seconds in section "FORWARD_STEP        [THE_MAIN_LOOP]":
(PID.TID 0000.0001)           User time:  4.81000024
(PID.TID 0000.0001)         System time:  0.0500000045
(PID.TID 0000.0001)     Wall clock time:  4.89280105
(PID.TID 0000.0001)          No. starts: 20
(PID.TID 0000.0001)           No. stops: 20
(PID.TID 0000.0001)   Seconds in section "EXTERNAL_FIELDS_LOAD[FORWARD_STEP]":
(PID.TID 0000.0001)           User time:  0.0199999809
(PID.TID 0000.0001)         System time:  0.00999999791
(PID.TID 0000.0001)     Wall clock time:  0.0268031359
(PID.TID 0000.0001)          No. starts: 20
(PID.TID 0000.0001)           No. stops: 20
(PID.TID 0000.0001)   Seconds in section "THERMODYNAMICS      [FORWARD_STEP]":
(PID.TID 0000.0001)           User time:  2.31000072
(PID.TID 0000.0001)         System time:  0.0100000054
(PID.TID 0000.0001)     Wall clock time:  2.36109412
(PID.TID 0000.0001)          No. starts: 20
(PID.TID 0000.0001)           No. stops: 20
(PID.TID 0000.0001)   Seconds in section "STATEKPP      [KPP_CALC]":
(PID.TID 0000.0001)           User time:  0.140000463
(PID.TID 0000.0001)         System time:  0.0100000054
(PID.TID 0000.0001)     Wall clock time:  0.185079098
(PID.TID 0000.0001)          No. starts: 20
(PID.TID 0000.0001)           No. stops: 20
(PID.TID 0000.0001)   Seconds in section "KPPMIX [KPP_CALC]":
(PID.TID 0000.0001)           User time:  0.770000756
(PID.TID 0000.0001)         System time:  0.
(PID.TID 0000.0001)     Wall clock time:  0.789864182
(PID.TID 0000.0001)          No. starts: 20
(PID.TID 0000.0001)           No. stops: 20
(PID.TID 0000.0001)   Seconds in section "DYNAMICS            [FORWARD_STEP]":
(PID.TID 0000.0001)           User time:  1.72999883
(PID.TID 0000.0001)         System time:  0.0100000054
(PID.TID 0000.0001)     Wall clock time:  1.74423766
(PID.TID 0000.0001)          No. starts: 20
(PID.TID 0000.0001)           No. stops: 20
(PID.TID 0000.0001)   Seconds in section "SOLVE_FOR_PRESSURE  [FORWARD_STEP]":
(PID.TID 0000.0001)           User time:  0.190000534
(PID.TID 0000.0001)         System time:  0.
(PID.TID 0000.0001)     Wall clock time:  0.217579961
(PID.TID 0000.0001)          No. starts: 20
(PID.TID 0000.0001)           No. stops: 20
(PID.TID 0000.0001)   Seconds in section "THE_CORRECTION_STEP [FORWARD_STEP]":
(PID.TID 0000.0001)           User time:  0.139999866
(PID.TID 0000.0001)         System time:  0.
(PID.TID 0000.0001)     Wall clock time:  0.0939340591
(PID.TID 0000.0001)          No. starts: 20
(PID.TID 0000.0001)           No. stops: 20
(PID.TID 0000.0001)   Seconds in section "BLOCKING_EXCHANGES  [FORWARD_STEP]":
(PID.TID 0000.0001)           User time:  0.0399997234
(PID.TID 0000.0001)         System time:  0.
(PID.TID 0000.0001)     Wall clock time:  0.0660339594
(PID.TID 0000.0001)          No. starts: 20
(PID.TID 0000.0001)           No. stops: 20
(PID.TID 0000.0001)   Seconds in section "MONITOR             [FORWARD_STEP]":
(PID.TID 0000.0001)           User time:  0.25
(PID.TID 0000.0001)         System time:  0.
(PID.TID 0000.0001)     Wall clock time:  0.285308957
(PID.TID 0000.0001)          No. starts: 20
(PID.TID 0000.0001)           No. stops: 20
(PID.TID 0000.0001)   Seconds in section "DO_THE_MODEL_IO     [FORWARD_STEP]":
(PID.TID 0000.0001)           User time:  0.100000381
(PID.TID 0000.0001)         System time:  0.0199999958
(PID.TID 0000.0001)     Wall clock time:  0.0817599297
(PID.TID 0000.0001)          No. starts: 20
(PID.TID 0000.0001)           No. stops: 20
(PID.TID 0000.0001)   Seconds in section "WRITE_CHECKPOINT    [FORWARD_STEP]":
(PID.TID 0000.0001)           User time:  0.0200002193
(PID.TID 0000.0001)         System time:  0.
(PID.TID 0000.0001)     Wall clock time:  0.00144052505
(PID.TID 0000.0001)          No. starts: 20
(PID.TID 0000.0001)           No. stops: 20
(PID.TID 0000.0001)   Seconds in section "WRITE_CHECKPOINT   [THE_MODEL_MAIN]":
(PID.TID 0000.0001)           User time:  0.139999866
(PID.TID 0000.0001)         System time:  0.0699999928
(PID.TID 0000.0001)     Wall clock time:  0.211591005
(PID.TID 0000.0001)          No. starts: 1
(PID.TID 0000.0001)           No. stops: 1
(PID.TID 0000.0001) // ======================================================
(PID.TID 0000.0001) // Tile <-> Tile communication statistics
(PID.TID 0000.0001) // ======================================================
(PID.TID 0000.0001) // o Tile number: 000001
(PID.TID 0000.0001) //         No. X exchanges =              0
(PID.TID 0000.0001) //            Max. X spins =              0
(PID.TID 0000.0001) //            Min. X spins =     1000000000
(PID.TID 0000.0001) //          Total. X spins =              0
(PID.TID 0000.0001) //            Avg. X spins =       0.00E+00
(PID.TID 0000.0001) //         No. Y exchanges =              0
(PID.TID 0000.0001) //            Max. Y spins =              0
(PID.TID 0000.0001) //            Min. Y spins =     1000000000
(PID.TID 0000.0001) //          Total. Y spins =              0
(PID.TID 0000.0001) //            Avg. Y spins =       0.00E+00
(PID.TID 0000.0001) // o Thread number: 000001
(PID.TID 0000.0001) //            No. barriers =          16616
(PID.TID 0000.0001) //      Max. barrier spins =              1
(PID.TID 0000.0001) //      Min. barrier spins =              1
(PID.TID 0000.0001) //     Total barrier spins =          16616
(PID.TID 0000.0001) //      Avg. barrier spins =       1.00E+00
