(PID.TID 0000.0001) 
(PID.TID 0000.0001) // ======================================================
(PID.TID 0000.0001) //                      MITgcm UV
(PID.TID 0000.0001) //                      =========
(PID.TID 0000.0001) // ======================================================
(PID.TID 0000.0001) // execution environment starting up...
(PID.TID 0000.0001) // Run starting Wed Apr  1 14:19:48 1998
(PID.TID 0000.0001) // on melville.lcs.mit.edu
(PID.TID 0000.0001) // account cnh
(PID.TID 0000.0001) // MITgcm UV Release: $Name:  $
(PID.TID 0000.0001) 
(PID.TID 0000.0001) // =======================================================
(PID.TID 0000.0001) // Execution Environment parameter file "eedata"
(PID.TID 0000.0001) // =======================================================
(PID.TID 0000.0001) ># Example "eedata" file
(PID.TID 0000.0001) ># Lines beginning "#" are comments
(PID.TID 0000.0001) ># nTx - No. threads per process in X
(PID.TID 0000.0001) ># nTy - No. threads per process in Y
(PID.TID 0000.0001) > &EEPARMS
(PID.TID 0000.0001) > nTx=1,nTy=1
(PID.TID 0000.0001) > &
(PID.TID 0000.0001) ># Note: Some systems use & as the
(PID.TID 0000.0001) ># namelist terminator. Other systems
(PID.TID 0000.0001) ># use a / character (as shown here).
(PID.TID 0000.0001) 
(PID.TID 0000.0001) // =======================================================
(PID.TID 0000.0001) // Computational Grid Specification ( see files "SIZE.h" )
(PID.TID 0000.0001) //                                  ( and "eedata"       )
(PID.TID 0000.0001) // =======================================================
(PID.TID 0000.0001)      nPx =    1 ; /* No. processes in X */
(PID.TID 0000.0001)      nPy =    1 ; /* No. processes in Y */
(PID.TID 0000.0001)      nSx =    1 ; /* No. tiles in X per process */
(PID.TID 0000.0001)      nSy =    1 ; /* No. tiles in Y per process */
(PID.TID 0000.0001)      sNx =   20 ; /* Tile size in X */
(PID.TID 0000.0001)      sNy =   16 ; /* Tile size in Y */
(PID.TID 0000.0001)      OLx =    4 ; /* Tile overlap distance in X */
(PID.TID 0000.0001)      OLy =    4 ; /* Tile overlap distance in Y */
(PID.TID 0000.0001)      nTx =    1 ; /* No. threads in X per process */
(PID.TID 0000.0001)      nTy =    1 ; /* No. threads in Y per process */
(PID.TID 0000.0001)       Nr =   23 ; /* No. levels in the vertical   */
(PID.TID 0000.0001)       nX =   20 ; /* Total domain size in X ( = nPx*nSx*sNx ) */
(PID.TID 0000.0001)       nY =   16 ; /* Total domain size in Y ( = nPy*nSy*sNy ) */
(PID.TID 0000.0001)   nTiles =    1 ; /* Total no. tiles per process ( = nSx*nSy ) */
(PID.TID 0000.0001)   nProcs =    1 ; /* Total no. processes ( = nPx*nPy ) */
(PID.TID 0000.0001) nThreads =    1 ; /* Total no. threads per process ( = nTx*nTy ) */
(PID.TID 0000.0001) usingMPI =    F ; /* Flag used to control whether MPI is in use */
(PID.TID 0000.0001)                   /*  note: To execute a program with MPI calls */
(PID.TID 0000.0001)                   /*  it must be launched appropriately e.g     */
(PID.TID 0000.0001)                   /*  "mpirun -np 64 ......"                    */
(PID.TID 0000.0001) 
(PID.TID 0000.0001) // ======================================================
(PID.TID 0000.0001) // Mapping of tiles to threads
(PID.TID 0000.0001) // ======================================================
(PID.TID 0000.0001) // -o- Thread   1, tiles (   1:   1,   1:   1)
(PID.TID 0000.0001) 
(PID.TID 0000.0001) // ======================================================
(PID.TID 0000.0001) // Tile <-> Tile connectvity table
(PID.TID 0000.0001) // ======================================================
(PID.TID 0000.0001) // Tile number: 000001 (process no. = 000001)
(PID.TID 0000.0001) //        WEST: Tile = 000001, Process = 000001, Comm = put
(PID.TID 0000.0001) //                bi = 000001, bj = 000001
(PID.TID 0000.0001) //        EAST: Tile = 000001, Process = 000001, Comm = put
(PID.TID 0000.0001) //                bi = 000001, bj = 000001
(PID.TID 0000.0001) //       SOUTH: Tile = 000001, Process = 000001, Comm = put
(PID.TID 0000.0001) //                bi = 000001, bj = 000001
(PID.TID 0000.0001) //       NORTH: Tile = 000001, Process = 000001, Comm = put
(PID.TID 0000.0001) //                bi = 000001, bj = 000001
(PID.TID 0000.0001) 
(PID.TID 0000.0001) // =======================================================
(PID.TID 0000.0001) // Model parameter file "data"
(PID.TID 0000.0001) // =======================================================
(PID.TID 0000.0001) ># ====================
(PID.TID 0000.0001) ># | Model parameters |
(PID.TID 0000.0001) ># ====================
(PID.TID 0000.0001) >#
(PID.TID 0000.0001) ># Continuous equation parameters
(PID.TID 0000.0001) >#
(PID.TID 0000.0001) >#   tRef            - Reference vertical potential temperature          (deg C)
(PID.TID 0000.0001) >#   sRef            - Reference vertical salinity                         (PSU)
(PID.TID 0000.0001) >#   viscAh          - Horizontal eddy viscosity coefficient             (m^2/s)
(PID.TID 0000.0001) >#   viscAz          - Vertical eddy viscosity coefficient               (m^2/s)
(PID.TID 0000.0001) >#   diffKhT         - Horizontal temperature diffusivity                (m^2/s)
(PID.TID 0000.0001) >#   diffKzT         - Vertical temperature diffusivity                  (m^2/s)
(PID.TID 0000.0001) >#   diffKhS         - Horizontal salt diffusivity                       (m^2/s)
(PID.TID 0000.0001) >#   diffKzS         - Vertical salt diffusivity                         (m^2/s)
(PID.TID 0000.0001) >#   f0              - Reference coriolis parameter,
(PID.TID 0000.0001) >#                     south edge of f on beta plane                       (1/s)
(PID.TID 0000.0001) >#   beta            - df/dy                                         (s^-1.m^-1)
(PID.TID 0000.0001) >#   tAlpha          - Linear EOS thermal expansion coefficient           (1/oC)
(PID.TID 0000.0001) >#   sBeta           - Linear EOS haline contraction coefficient         (1/ppt)
(PID.TID 0000.0001) >#   gravity         - Acceleration due to gravity                       (m/s^2)
(PID.TID 0000.0001) >#   gBaro           - Accel. due to gravity used in barotropic equation (m/s^2)
(PID.TID 0000.0001) >#   rigidLid        - Set to true to use rigid lid
(PID.TID 0000.0001) >#   implicitFreeSurface - Set to true to use implicit free surface
(PID.TID 0000.0001) >#   eosType         - Flag for linear or polynomial equation of state
(PID.TID 0000.0001) >#   GMkbackground   - background value of GM/Redi coefficient
(PID.TID 0000.0001) >#   momAdvection    - On/Off flag for momentum self transport
(PID.TID 0000.0001) >#   momViscosity    - On/Off flag for momentum mixing
(PID.TID 0000.0001) >#
(PID.TID 0000.0001) > &PARM01
(PID.TID 0000.0001) > viscAz             = 1.E-3,
(PID.TID 0000.0001) > diffKzT            = 1.E-5,
(PID.TID 0000.0001) > diffKzS            = 1.E-5,
(PID.TID 0000.0001) > viscAh             = 5.0E4,
(PID.TID 0000.0001) > viscA4             = 5.e12,
(PID.TID 0000.0001) > diffKhT            = 1.0E3,
(PID.TID 0000.0001) > diffKhS            = 1.0E3,
(PID.TID 0000.0001) > f0                 = 1.e-4,
(PID.TID 0000.0001) > beta               = 1.E-11,
(PID.TID 0000.0001) > tAlpha             = 2.E-4,
(PID.TID 0000.0001) > sBeta              = 7.4E-4,
(PID.TID 0000.0001) > gravity            = 9.81,
(PID.TID 0000.0001) > gBaro              = 9.81,
(PID.TID 0000.0001) > rigidLid           = .FALSE.,
(PID.TID 0000.0001) > implicitFreeSurface= .TRUE.,
(PID.TID 0000.0001) > implicitDiffusion  = .TRUE.,
(PID.TID 0000.0001) > eosType            = 'POLY3',
(PID.TID 0000.0001) > momAdvection       = .TRUE.,
(PID.TID 0000.0001) > momViscosity       = .TRUE.,
(PID.TID 0000.0001) > implicitDiffusion  = .TRUE.,
(PID.TID 0000.0001) > implicitViscosity  = .TRUE.,
(PID.TID 0000.0001) > no_slip_bottom     = .TRUE.,
(PID.TID 0000.0001) > no_slip_sides      = .FALSE.,
(PID.TID 0000.0001) > readBinaryPrec     = 32,
(PID.TID 0000.0001) > &
(PID.TID 0000.0001) >
(PID.TID 0000.0001) ># Elliptic solver parameters
(PID.TID 0000.0001) >#
(PID.TID 0000.0001) >#   cg2dMaxIters       - Maximum number of 2d solver iterations
(PID.TID 0000.0001) >#   cg2dTargetResidual - Solver target residual
(PID.TID 0000.0001) >#
(PID.TID 0000.0001) > &PARM02
(PID.TID 0000.0001) > cg2dMaxIters       = 1000,
(PID.TID 0000.0001) > cg2dTargetResidual = 1.E-13,
(PID.TID 0000.0001) > &
(PID.TID 0000.0001) >
(PID.TID 0000.0001) ># Time stepping parameters
(PID.TID 0000.0001) >#
(PID.TID 0000.0001) >#   startTime         - Integration starting time                (s)
(PID.TID 0000.0001) >#   endTime           - Integration ending time                  (s)
(PID.TID 0000.0001) >#   tauCD             - CD scheme coupling timescale             (s)
(PID.TID 0000.0001) >#   deltaTMom         - Timestep for momemtum equations          (s)
(PID.TID 0000.0001) >#   deltaTtracer      - Tracer timestep                          (s)
(PID.TID 0000.0001) >#   deltaTClock       - Timestep used as model "clock"           (s)
(PID.TID 0000.0001) >#   abEps             - Adams-Bashforth stabilising factor
(PID.TID 0000.0001) >#   pChkPtFreq        - Frequency of permanent check pointing    (s)
(PID.TID 0000.0001) >#   chkPtFreq         - Frequency of rolling check pointing      (s)
(PID.TID 0000.0001) >#   dumpFreq          - Frequency at which model state is stored (s)
(PID.TID 0000.0001) >#   tauThetaClimRelax - Relaxation to climatology time scale     (s)
(PID.TID 0000.0001) >#   tauSaltClimRelax  - Relaxation to climatology time scale     (s)
(PID.TID 0000.0001) >#
(PID.TID 0000.0001) > &PARM03
(PID.TID 0000.0001) > startTime  = 0.0,
(PID.TID 0000.0001) > endTime    = 72000.0,
(PID.TID 0000.0001) > deltaTmom  = 3600.0,
(PID.TID 0000.0001) > TauCD      = 172800.
(PID.TID 0000.0001) > cAdjFreq   = 0.,
(PID.TID 0000.0001) > abEps      = 0.1,
(PID.TID 0000.0001) > pChkptFreq = 0.0,
(PID.TID 0000.0001) > chkptFreq  = 0.0,
(PID.TID 0000.0001) > dumpFreq   = 864000.0,
(PID.TID 0000.0001) > tauSaltClimRelax = 2592000.0,
(PID.TID 0000.0001) > tauThetaClimRelax = 2592000.0,
(PID.TID 0000.0001) > periodicExternalForcing = .TRUE.,
(PID.TID 0000.0001) > externForcingPeriod = 43200.0,
(PID.TID 0000.0001) > externForcingCycle = 2764800.0,
(PID.TID 0000.0001) > monitorFreq=1.,
(PID.TID 0000.0001) > &
(PID.TID 0000.0001) >
(PID.TID 0000.0001) ># Gridding parameters
(PID.TID 0000.0001) >#
(PID.TID 0000.0001) >#   usingSphericalPolarGrid - On/Off flag for spherical polar coordinates
(PID.TID 0000.0001) >#   usingCartesianGrid      - On/Off flag for selecting cartesian coordinates
(PID.TID 0000.0001) >#   delX                    - Zonal grid spacing         (degrees)
(PID.TID 0000.0001) >#   delY                    - Meridional grid spacing    (degrees)
(PID.TID 0000.0001) >#   delZ                    - Vertical grid spacing      (m)
(PID.TID 0000.0001) >#   phiMin                  - Southern boundary latitude (degrees)
(PID.TID 0000.0001) >#
(PID.TID 0000.0001) > &PARM04
(PID.TID 0000.0001) > usingCartesianGrid      = .FALSE.,
(PID.TID 0000.0001) > usingSphericalPolarGrid = .TRUE.,
(PID.TID 0000.0001) > delX   = 20*2.,
(PID.TID 0000.0001) > delY   = 16*2.,
(PID.TID 0000.0001) > delZ= 10., 10., 15., 20., 20., 25., 35., 50., 75.,
(PID.TID 0000.0001) >       100., 150., 200., 275., 350., 415., 450.,
(PID.TID 0000.0001) >       500., 500., 500., 500., 500., 500., 500.
(PID.TID 0000.0001) > phiMin = 10.,
(PID.TID 0000.0001) > thetaMin= -42.
(PID.TID 0000.0001) > &
(PID.TID 0000.0001) >
(PID.TID 0000.0001) ># Input datasets
(PID.TID 0000.0001) >#
(PID.TID 0000.0001) >#   bathyFile       - File containing bathymetry
(PID.TID 0000.0001) >#   hydrogThetaFile - File containing initial potential temperature data
(PID.TID 0000.0001) >#   hydrogSaltFile  - File containing initial salinity data
(PID.TID 0000.0001) >#   zonalWindFile   - File containing zonal wind data
(PID.TID 0000.0001) >#   meridWindFile   - File containing meridional wind data
(PID.TID 0000.0001) >#   thetaClimFile   - File containing theta climatology used for relaxation
(PID.TID 0000.0001) >#   saltClimFile    - File containing salt climatology used for relaxation
(PID.TID 0000.0001) >#
(PID.TID 0000.0001) > &PARM05
(PID.TID 0000.0001) > bathyFile       = 'kf_topog',
(PID.TID 0000.0001) > hydrogThetaFile = 'kf_climtheta',
(PID.TID 0000.0001) > hydrogSaltFile  = 'kf_climsalt',
(PID.TID 0000.0001) > zonalWindFile   = 'kf_fu',
(PID.TID 0000.0001) > meridWindFile   = 'kf_fv',
(PID.TID 0000.0001) > thetaClimFile   = 'kf_sst',
(PID.TID 0000.0001) > saltClimFile    = 'kf_sss',
(PID.TID 0000.0001) > surfQFile       = 'kf_qnet',
(PID.TID 0000.0001) > EmPmRFile       = 'kf_empmr',
(PID.TID 0000.0001) > surfQswFile     = 'kf_sw',
(PID.TID 0000.0001) > &
(PID.TID 0000.0001) 
(PID.TID 0000.0001) %MON XC_max                       =  -3.0000000000000E+00
(PID.TID 0000.0001) %MON XC_min                       =  -4.1000000000000E+01
(PID.TID 0000.0001) %MON XC_mean                      =  -2.2000000000000E+01
(PID.TID 0000.0001) %MON XC_sd                        =   1.1532562594671E+01
(PID.TID 0000.0001) %MON XG_max                       =  -4.0000000000000E+00
(PID.TID 0000.0001) %MON XG_min                       =  -4.2000000000000E+01
(PID.TID 0000.0001) %MON XG_mean                      =  -2.3000000000000E+01
(PID.TID 0000.0001) %MON XG_sd                        =   1.1532562594671E+01
(PID.TID 0000.0001) %MON DXC_max                      =   2.1826966005878E+05
(PID.TID 0000.0001) %MON DXC_min                      =   1.6781340848749E+05
(PID.TID 0000.0001) %MON DXC_mean                     =   1.9727395728441E+05
(PID.TID 0000.0001) %MON DXC_sd                       =   1.5731168072696E+04
(PID.TID 0000.0001) %MON DXF_max                      =   2.1826966005878E+05
(PID.TID 0000.0001) %MON DXF_min                      =   1.6781340848749E+05
(PID.TID 0000.0001) %MON DXF_mean                     =   1.9727395728441E+05
(PID.TID 0000.0001) %MON DXF_sd                       =   1.5731168072696E+04
(PID.TID 0000.0001) %MON DXG_max                      =   2.1897687543479E+05
(PID.TID 0000.0001) %MON DXG_min                      =   1.7033377132268E+05
(PID.TID 0000.0001) %MON DXG_mean                     =   1.9892312861058E+05
(PID.TID 0000.0001) %MON DXG_sd                       =   1.5180938630473E+04
(PID.TID 0000.0001) %MON DXV_max                      =   2.1897687543479E+05
(PID.TID 0000.0001) %MON DXV_min                      =   1.7033377132268E+05
(PID.TID 0000.0001) %MON DXV_mean                     =   1.9892312861058E+05
(PID.TID 0000.0001) %MON DXV_sd                       =   1.5180938630473E+04
(PID.TID 0000.0001) %MON YC_max                       =   4.1000000000000E+01
(PID.TID 0000.0001) %MON YC_min                       =   1.1000000000000E+01
(PID.TID 0000.0001) %MON YC_mean                      =   2.6000000000000E+01
(PID.TID 0000.0001) %MON YC_sd                        =   9.2195444572929E+00
(PID.TID 0000.0001) %MON YG_max                       =   4.0000000000000E+01
(PID.TID 0000.0001) %MON YG_min                       =   1.0000000000000E+01
(PID.TID 0000.0001) %MON YG_mean                      =   2.5000000000000E+01
(PID.TID 0000.0001) %MON YG_sd                        =   9.2195444572929E+00
(PID.TID 0000.0001) %MON DYC_max                      =   2.2235494670408E+05
(PID.TID 0000.0001) %MON DYC_min                      =   2.2235494670408E+05
(PID.TID 0000.0001) %MON DYC_mean                     =   2.2235494670408E+05
(PID.TID 0000.0001) %MON DYC_sd                       =   1.1641532182693E-09
(PID.TID 0000.0001) %MON DYF_max                      =   2.2235494670408E+05
(PID.TID 0000.0001) %MON DYF_min                      =   2.2235494670408E+05
(PID.TID 0000.0001) %MON DYF_mean                     =   2.2235494670408E+05
(PID.TID 0000.0001) %MON DYF_sd                       =   1.1641532182693E-09
(PID.TID 0000.0001) %MON DYG_max                      =   2.2235494670408E+05
(PID.TID 0000.0001) %MON DYG_min                      =   2.2235494670408E+05
(PID.TID 0000.0001) %MON DYG_mean                     =   2.2235494670408E+05
(PID.TID 0000.0001) %MON DYG_sd                       =   1.1641532182693E-09
(PID.TID 0000.0001) %MON DYU_max                      =   2.2235494670408E+05
(PID.TID 0000.0001) %MON DYU_min                      =   2.2235494670408E+05
(PID.TID 0000.0001) %MON DYU_mean                     =   2.2235494670408E+05
(PID.TID 0000.0001) %MON DYU_sd                       =   1.1641532182693E-09
(PID.TID 0000.0001) %MON RA_max                       =   4.8530874650285E+10
(PID.TID 0000.0001) %MON RA_min                       =   3.7312247106402E+10
(PID.TID 0000.0001) %MON RA_mean                      =   4.3862613292919E+10
(PID.TID 0000.0001) %MON RA_sd                        =   3.4977254540690E+09
(PID.TID 0000.0001) %MON RAW_max                      =   4.8530874650285E+10
(PID.TID 0000.0001) %MON RAW_min                      =   3.7312247106402E+10
(PID.TID 0000.0001) %MON RAW_mean                     =   4.3862613292919E+10
(PID.TID 0000.0001) %MON RAW_sd                       =   3.4977254540690E+09
(PID.TID 0000.0001) %MON RAS_max                      =   4.8688119503989E+10
(PID.TID 0000.0001) %MON RAS_min                      =   3.7872633798691E+10
(PID.TID 0000.0001) %MON RAS_mean                     =   4.4229296078267E+10
(PID.TID 0000.0001) %MON RAS_sd                       =   3.3753854271397E+09
(PID.TID 0000.0001) %MON RAZ_max                      =   4.8688119503989E+10
(PID.TID 0000.0001) %MON RAZ_min                      =   3.7872633798691E+10
(PID.TID 0000.0001) %MON RAZ_mean                     =   4.4229296078267E+10
(PID.TID 0000.0001) %MON RAZ_sd                       =   3.3753854271397E+09
(PID.TID 0000.0001)  MDSREADFIELD: opening global file: kf_topog
(PID.TID 0000.0001) // =======================================================
(PID.TID 0000.0001) // Field Model R_low (ini_masks_etc) at iteration          1
(PID.TID 0000.0001) // CMIN =         -5.200000000000000E+03
(PID.TID 0000.0001) // CMAX =         -3.600000000000000E+02
(PID.TID 0000.0001) // CINT =          1.792592592592593E+02
(PID.TID 0000.0001) // SYMBOLS (CMIN->CMAX): -abcdefghijklmnopqrstuvwxyz+
(PID.TID 0000.0001) //                  0.0: .
(PID.TID 0000.0001) // RANGE I (Lo:Hi:Step):(  -3:  24:   1)
(PID.TID 0000.0001) // RANGE J (Lo:Hi:Step):(  20:  -3:  -1)
(PID.TID 0000.0001) // RANGE K (Lo:Hi:Step):(   1:   1:   1)
(PID.TID 0000.0001) // =======================================================
(PID.TID 0000.0001) K =   1
(PID.TID 0000.0001) //                I=6       I=16
(PID.TID 0000.0001) // |--J--|***012345|789012345|78901234
(PID.TID 0000.0001) //     20 .....cc-----cfkhkz.......cc-
(PID.TID 0000.0001) //     19 .....c-------cccfy.......c--
(PID.TID 0000.0001) //     18 .....hcc------ccfx.......hcc
(PID.TID 0000.0001) //     17 ............................
(PID.TID 0000.0001) //     16 ............................
(PID.TID 0000.0001) //     15 hv+..fhknsqknnff-ckhhv+..fhk
(PID.TID 0000.0001) //     14 fhx..hknnnnkhcc-chhhfhx..hkn
(PID.TID 0000.0001) //     13 fz...knnkhknf--chkfffz...knn
(PID.TID 0000.0001) //     12 q....nkhfffhc--cffhnq....nkh
(PID.TID 0000.0001) //     11 +....khfccccc-ccfkkv+....khf
(PID.TID 0000.0001) //     10 .....hcc---cc-cfhks......hcc
(PID.TID 0000.0001) //      9 .....fc-------cfkq.......fc-
(PID.TID 0000.0001) //      8 .....c-------ccfkx.......c--
(PID.TID 0000.0001) //      7 .....c---cfcccfhk+.......c--
(PID.TID 0000.0001) //      6 .....c---cccffhknv.......c--
(PID.TID 0000.0001) //      5 .....c--ccccfkkkkq.......c--
(PID.TID 0000.0001) //      4 .....cc-----cfkhkz.......cc-
(PID.TID 0000.0001) //      3 .....c-------cccfy.......c--
(PID.TID 0000.0001) //      2 .....hcc------ccfx.......hcc
(PID.TID 0000.0001) //      1 ............................
(PID.TID 0000.0001) //      0 ............................
(PID.TID 0000.0001) //     -1 hv+..fhknsqknnff-ckhhv+..fhk
(PID.TID 0000.0001) //     -2 fhx..hknnnnkhcc-chhhfhx..hkn
(PID.TID 0000.0001) //     -3 fz...knnkhknf--chkfffz...knn
(PID.TID 0000.0001) // =======================================================
(PID.TID 0000.0001) // END OF FIELD                                          =
(PID.TID 0000.0001) // =======================================================
(PID.TID 0000.0001) 
(PID.TID 0000.0001) // =======================================================
(PID.TID 0000.0001) // Field Model Ro_surf (ini_masks_etc) at iteration          1
(PID.TID 0000.0001) // CMIN =          1.000000000000000E+32
(PID.TID 0000.0001) // CMAX =         -1.000000000000000E+32
(PID.TID 0000.0001) // CINT =          0.000000000000000E+00
(PID.TID 0000.0001) // SYMBOLS (CMIN->CMAX): -abcdefghijklmnopqrstuvwxyz+
(PID.TID 0000.0001) //                  0.0: .
(PID.TID 0000.0001) // RANGE I (Lo:Hi:Step):(  -3:  24:   1)
(PID.TID 0000.0001) // RANGE J (Lo:Hi:Step):(  20:  -3:  -1)
(PID.TID 0000.0001) // RANGE K (Lo:Hi:Step):(   1:   1:   1)
(PID.TID 0000.0001) // =======================================================
(PID.TID 0000.0001) K =   1
(PID.TID 0000.0001) //                I=6       I=16
(PID.TID 0000.0001) // |--J--|***012345|789012345|78901234
(PID.TID 0000.0001) //     20 ............................
(PID.TID 0000.0001) //     19 ............................
(PID.TID 0000.0001) //     18 ............................
(PID.TID 0000.0001) //     17 ............................
(PID.TID 0000.0001) //     16 ............................
(PID.TID 0000.0001) //     15 ............................
(PID.TID 0000.0001) //     14 ............................
(PID.TID 0000.0001) //     13 ............................
(PID.TID 0000.0001) //     12 ............................
(PID.TID 0000.0001) //     11 ............................
(PID.TID 0000.0001) //     10 ............................
(PID.TID 0000.0001) //      9 ............................
(PID.TID 0000.0001) //      8 ............................
(PID.TID 0000.0001) //      7 ............................
(PID.TID 0000.0001) //      6 ............................
(PID.TID 0000.0001) //      5 ............................
(PID.TID 0000.0001) //      4 ............................
(PID.TID 0000.0001) //      3 ............................
(PID.TID 0000.0001) //      2 ............................
(PID.TID 0000.0001) //      1 ............................
(PID.TID 0000.0001) //      0 ............................
(PID.TID 0000.0001) //     -1 ............................
(PID.TID 0000.0001) //     -2 ............................
(PID.TID 0000.0001) //     -3 ............................
(PID.TID 0000.0001) // =======================================================
(PID.TID 0000.0001) // END OF FIELD                                          =
(PID.TID 0000.0001) // =======================================================
(PID.TID 0000.0001) 
(PID.TID 0000.0001) // =======================================================
(PID.TID 0000.0001) // Field hFacC at iteration          1
(PID.TID 0000.0001) // CMIN =          1.000000000000000E+00
(PID.TID 0000.0001) // CMAX =          1.000000000000000E+00
(PID.TID 0000.0001) // CINT =          0.000000000000000E+00
(PID.TID 0000.0001) // SYMBOLS (CMIN->CMAX): -abcdefghijklmnopqrstuvwxyz+
(PID.TID 0000.0001) //                  0.0: .
(PID.TID 0000.0001) // RANGE I (Lo:Hi:Step):(  -3:  24:   1)
(PID.TID 0000.0001) // RANGE J (Lo:Hi:Step):(  20:  -3:  -1)
(PID.TID 0000.0001) // RANGE K (Lo:Hi:Step):(   1:   1:   1)
(PID.TID 0000.0001) // =======================================================
(PID.TID 0000.0001) K =   1
(PID.TID 0000.0001) //                I=6       I=16
(PID.TID 0000.0001) // |--J--|***012345|789012345|78901234
(PID.TID 0000.0001) //     20 .....-------------.......---
(PID.TID 0000.0001) //     19 .....-------------.......---
(PID.TID 0000.0001) //     18 .....-------------.......---
(PID.TID 0000.0001) //     17 ............................
(PID.TID 0000.0001) //     16 ............................
(PID.TID 0000.0001) //     15 ---..------------------..---
(PID.TID 0000.0001) //     14 ---..------------------..---
(PID.TID 0000.0001) //     13 --...-----------------...---
(PID.TID 0000.0001) //     12 -....----------------....---
(PID.TID 0000.0001) //     11 -....----------------....---
(PID.TID 0000.0001) //     10 .....--------------......---
(PID.TID 0000.0001) //      9 .....-------------.......---
(PID.TID 0000.0001) //      8 .....-------------.......---
(PID.TID 0000.0001) //      7 .....-------------.......---
(PID.TID 0000.0001) //      6 .....-------------.......---
(PID.TID 0000.0001) //      5 .....-------------.......---
(PID.TID 0000.0001) //      4 .....-------------.......---
(PID.TID 0000.0001) //      3 .....-------------.......---
(PID.TID 0000.0001) //      2 .....-------------.......---
(PID.TID 0000.0001) //      1 ............................
(PID.TID 0000.0001) //      0 ............................
(PID.TID 0000.0001) //     -1 ---..------------------..---
(PID.TID 0000.0001) //     -2 ---..------------------..---
(PID.TID 0000.0001) //     -3 --...-----------------...---
(PID.TID 0000.0001) // =======================================================
(PID.TID 0000.0001) // END OF FIELD                                          =
(PID.TID 0000.0001) // =======================================================
(PID.TID 0000.0001) 
(PID.TID 0000.0001) // =======================================================
(PID.TID 0000.0001) // Field hFacW at iteration          1
(PID.TID 0000.0001) // CMIN =          1.000000000000000E+00
(PID.TID 0000.0001) // CMAX =          1.000000000000000E+00
(PID.TID 0000.0001) // CINT =          0.000000000000000E+00
(PID.TID 0000.0001) // SYMBOLS (CMIN->CMAX): -abcdefghijklmnopqrstuvwxyz+
(PID.TID 0000.0001) //                  0.0: .
(PID.TID 0000.0001) // RANGE I (Lo:Hi:Step):(  -3:  24:   1)
(PID.TID 0000.0001) // RANGE J (Lo:Hi:Step):(  20:  -3:  -1)
(PID.TID 0000.0001) // RANGE K (Lo:Hi:Step):(   1:   1:   1)
(PID.TID 0000.0001) // =======================================================
(PID.TID 0000.0001) K =   1
(PID.TID 0000.0001) //                I=6       I=16
(PID.TID 0000.0001) // |--J--|***012345|789012345|78901234
(PID.TID 0000.0001) //     20 ......------------........--
(PID.TID 0000.0001) //     19 ......------------........--
(PID.TID 0000.0001) //     18 ......------------........--
(PID.TID 0000.0001) //     17 ............................
(PID.TID 0000.0001) //     16 ............................
(PID.TID 0000.0001) //     15 ---...-----------------...--
(PID.TID 0000.0001) //     14 ---...-----------------...--
(PID.TID 0000.0001) //     13 --....----------------....--
(PID.TID 0000.0001) //     12 -.....---------------.....--
(PID.TID 0000.0001) //     11 -.....---------------.....--
(PID.TID 0000.0001) //     10 ......-------------.......--
(PID.TID 0000.0001) //      9 ......------------........--
(PID.TID 0000.0001) //      8 ......------------........--
(PID.TID 0000.0001) //      7 ......------------........--
(PID.TID 0000.0001) //      6 ......------------........--
(PID.TID 0000.0001) //      5 ......------------........--
(PID.TID 0000.0001) //      4 ......------------........--
(PID.TID 0000.0001) //      3 ......------------........--
(PID.TID 0000.0001) //      2 ......------------........--
(PID.TID 0000.0001) //      1 ............................
(PID.TID 0000.0001) //      0 ............................
(PID.TID 0000.0001) //     -1 ---...-----------------...--
(PID.TID 0000.0001) //     -2 ---...-----------------...--
(PID.TID 0000.0001) //     -3 --....----------------....--
(PID.TID 0000.0001) // =======================================================
(PID.TID 0000.0001) // END OF FIELD                                          =
(PID.TID 0000.0001) // =======================================================
(PID.TID 0000.0001) 
(PID.TID 0000.0001) // =======================================================
(PID.TID 0000.0001) // Field hFacS at iteration          1
(PID.TID 0000.0001) // CMIN =          1.000000000000000E+00
(PID.TID 0000.0001) // CMAX =          1.000000000000000E+00
(PID.TID 0000.0001) // CINT =          0.000000000000000E+00
(PID.TID 0000.0001) // SYMBOLS (CMIN->CMAX): -abcdefghijklmnopqrstuvwxyz+
(PID.TID 0000.0001) //                  0.0: .
(PID.TID 0000.0001) // RANGE I (Lo:Hi:Step):(  -3:  24:   1)
(PID.TID 0000.0001) // RANGE J (Lo:Hi:Step):(  20:  -3:  -1)
(PID.TID 0000.0001) // RANGE K (Lo:Hi:Step):(   1:   1:   1)
(PID.TID 0000.0001) // =======================================================
(PID.TID 0000.0001) K =   1
(PID.TID 0000.0001) //                I=6       I=16
(PID.TID 0000.0001) // |--J--|***012345|789012345|78901234
(PID.TID 0000.0001) //     20 .....-------------.......---
(PID.TID 0000.0001) //     19 .....-------------.......---
(PID.TID 0000.0001) //     18 ............................
(PID.TID 0000.0001) //     17 ............................
(PID.TID 0000.0001) //     16 ............................
(PID.TID 0000.0001) //     15 ---..------------------..---
(PID.TID 0000.0001) //     14 --...-----------------...---
(PID.TID 0000.0001) //     13 -....----------------....---
(PID.TID 0000.0001) //     12 -....----------------....---
(PID.TID 0000.0001) //     11 .....--------------......---
(PID.TID 0000.0001) //     10 .....-------------.......---
(PID.TID 0000.0001) //      9 .....-------------.......---
(PID.TID 0000.0001) //      8 .....-------------.......---
(PID.TID 0000.0001) //      7 .....-------------.......---
(PID.TID 0000.0001) //      6 .....-------------.......---
(PID.TID 0000.0001) //      5 .....-------------.......---
(PID.TID 0000.0001) //      4 .....-------------.......---
(PID.TID 0000.0001) //      3 .....-------------.......---
(PID.TID 0000.0001) //      2 ............................
(PID.TID 0000.0001) //      1 ............................
(PID.TID 0000.0001) //      0 ............................
(PID.TID 0000.0001) //     -1 ---..------------------..---
(PID.TID 0000.0001) //     -2 --...-----------------...---
(PID.TID 0000.0001) //     -3 -....----------------....---
(PID.TID 0000.0001) // =======================================================
(PID.TID 0000.0001) // END OF FIELD                                          =
(PID.TID 0000.0001) // =======================================================
(PID.TID 0000.0001) 
(PID.TID 0000.0001) %MON fCori_max                    =   9.5419917861011E-05
(PID.TID 0000.0001) %MON fCori_min                    =   2.7752043431195E-05
(PID.TID 0000.0001) %MON fCori_mean                   =   6.2936249243167E-05
(PID.TID 0000.0001) %MON fCori_sd                     =   2.0885809702547E-05
(PID.TID 0000.0001) %MON fCoriG_max                   =   9.3489668167119E-05
(PID.TID 0000.0001) %MON fCoriG_min                   =   2.5256103669800E-05
(PID.TID 0000.0001) %MON fCoriG_mean                  =   6.0674632558389E-05
(PID.TID 0000.0001) %MON fCoriG_sd                    =   2.1059305790472E-05
(PID.TID 0000.0001)  PACKAGE_INIT: opening data.pkg
(PID.TID 0000.0001)  OPEN_COPY_DATA_FILE: opening file data.pkg
(PID.TID 0000.0001) // =======================================================
(PID.TID 0000.0001) // Parameter file "data.pkg"
(PID.TID 0000.0001) // =======================================================
(PID.TID 0000.0001) ># Packages
(PID.TID 0000.0001) > &PACKAGES
(PID.TID 0000.0001) >  useGMRedi=.FALSE.,
(PID.TID 0000.0001) >  useKPP=.TRUE.,
(PID.TID 0000.0001) >  useECCO=.FALSE.,
(PID.TID 0000.0001) > &
(PID.TID 0000.0001) 
(PID.TID 0000.0001)  PACKAGE_INIT: finished reading data.pkg
(PID.TID 0000.0001)  KPP_INIT: opening data.kpp
(PID.TID 0000.0001)  OPEN_COPY_DATA_FILE: opening file data.kpp
(PID.TID 0000.0001) // =======================================================
(PID.TID 0000.0001) // Parameter file "data.kpp"
(PID.TID 0000.0001) // =======================================================
(PID.TID 0000.0001) ># KPP parameters
(PID.TID 0000.0001) > &KPP_PARM01
(PID.TID 0000.0001) > KPPmixingMaps   = .FALSE.,
(PID.TID 0000.0001) > KPPwriteState   = .TRUE.,
(PID.TID 0000.0001) > kpp_dumpFreq    = 864000.0
(PID.TID 0000.0001) > &
(PID.TID 0000.0001) 
(PID.TID 0000.0001)  KPP_INIT: finished reading data.kpp
(PID.TID 0000.0001) KPP_CHECK: #define ALLOW_KPP
(PID.TID 0000.0001) // CG2D normalisation factor =          0.1575292392863445389492028E-03
(PID.TID 0000.0001) 
(PID.TID 0000.0001) // =======================================================
(PID.TID 0000.0001) // Model configuration
(PID.TID 0000.0001) // =======================================================
(PID.TID 0000.0001) //
(PID.TID 0000.0001) // "Physical" paramters ( PARM01 in namelist )
(PID.TID 0000.0001) //
(PID.TID 0000.0001) tRef =   /* Reference temperature profile ( oC or oK ) */
(PID.TID 0000.0001)                 2.900000000000000E+01,      /* K =  1 */
(PID.TID 0000.0001)                 2.800000000000000E+01,      /* K =  2 */
(PID.TID 0000.0001)                 2.700000000000000E+01,      /* K =  3 */
(PID.TID 0000.0001)                 2.600000000000000E+01,      /* K =  4 */
(PID.TID 0000.0001)                 2.500000000000000E+01,      /* K =  5 */
(PID.TID 0000.0001)                 2.400000000000000E+01,      /* K =  6 */
(PID.TID 0000.0001)                 2.300000000000000E+01,      /* K =  7 */
(PID.TID 0000.0001)                 2.200000000000000E+01,      /* K =  8 */
(PID.TID 0000.0001)                 2.100000000000000E+01,      /* K =  9 */
(PID.TID 0000.0001)                 2.000000000000000E+01,      /* K = 10 */
(PID.TID 0000.0001)                 1.900000000000000E+01,      /* K = 11 */
(PID.TID 0000.0001)                 1.800000000000000E+01,      /* K = 12 */
(PID.TID 0000.0001)                 1.700000000000000E+01,      /* K = 13 */
(PID.TID 0000.0001)                 1.600000000000000E+01,      /* K = 14 */
(PID.TID 0000.0001)                 1.500000000000000E+01,      /* K = 15 */
(PID.TID 0000.0001)                 1.400000000000000E+01,      /* K = 16 */
(PID.TID 0000.0001)                 1.300000000000000E+01,      /* K = 17 */
(PID.TID 0000.0001)                 1.200000000000000E+01,      /* K = 18 */
(PID.TID 0000.0001)                 1.100000000000000E+01,      /* K = 19 */
(PID.TID 0000.0001)                 1.000000000000000E+01,      /* K = 20 */
(PID.TID 0000.0001)                 9.000000000000000E+00,      /* K = 21 */
(PID.TID 0000.0001)                 8.000000000000000E+00,      /* K = 22 */
(PID.TID 0000.0001)                 7.000000000000000E+00       /* K = 23 */
(PID.TID 0000.0001)     ;
(PID.TID 0000.0001) sRef =   /* Reference salinity profile ( ppt ) */
(PID.TID 0000.0001)    23 @  0.000000000000000E+00              /* K =  1: 23 */
(PID.TID 0000.0001)     ;
(PID.TID 0000.0001) viscAh =   /* Lateral eddy viscosity ( m^2/s ) */
(PID.TID 0000.0001)                 5.000000000000000E+04
(PID.TID 0000.0001)     ;
(PID.TID 0000.0001) viscAh =   /* Lateral biharmonic viscosity ( m^4/s ) */
(PID.TID 0000.0001)                 5.000000000000000E+12
(PID.TID 0000.0001)     ;
(PID.TID 0000.0001) no_slip_sides =  /* Viscous BCs: No-slip sides */
(PID.TID 0000.0001)                   F
(PID.TID 0000.0001)     ;
(PID.TID 0000.0001) viscAz =   /* Vertical eddy viscosity ( m^2/s ) */
(PID.TID 0000.0001)                 1.000000000000000E-03
(PID.TID 0000.0001)     ;
(PID.TID 0000.0001) viscAr =   /* Vertical eddy viscosity ( units of r^2/s ) */
(PID.TID 0000.0001)                 1.000000000000000E-03
(PID.TID 0000.0001)     ;
(PID.TID 0000.0001) diffKhT =   /* Laplacian diffusion of heat laterally ( m^2/s ) */
(PID.TID 0000.0001)                 1.000000000000000E+03
(PID.TID 0000.0001)     ;
(PID.TID 0000.0001) diffK4T =   /* Bihaarmonic diffusion of heat laterally ( m^4/s ) */
(PID.TID 0000.0001)                 0.000000000000000E+00
(PID.TID 0000.0001)     ;
(PID.TID 0000.0001) diffKzT =   /* Laplacian diffusion of heat vertically ( m^2/s ) */
(PID.TID 0000.0001)                 1.000000000000000E-05
(PID.TID 0000.0001)     ;
(PID.TID 0000.0001) diffKrT =   /* Laplacian diffusion of heat vertically ( m^2/s ) */
(PID.TID 0000.0001)                 1.000000000000000E-05
(PID.TID 0000.0001)     ;
(PID.TID 0000.0001) diffKhS =   /* Laplacian diffusion of salt laterally ( m^2/s ) */
(PID.TID 0000.0001)                 1.000000000000000E+03
(PID.TID 0000.0001)     ;
(PID.TID 0000.0001) diffK4S =   /* Bihaarmonic diffusion of salt laterally ( m^4/s ) */
(PID.TID 0000.0001)                 0.000000000000000E+00
(PID.TID 0000.0001)     ;
(PID.TID 0000.0001) diffKzS =   /* Laplacian diffusion of salt vertically ( m^2/s ) */
(PID.TID 0000.0001)                 1.000000000000000E-05
(PID.TID 0000.0001)     ;
(PID.TID 0000.0001) diffKrS =   /* Laplacian diffusion of salt vertically ( m^2/s ) */
(PID.TID 0000.0001)                 1.000000000000000E-05
(PID.TID 0000.0001)     ;
(PID.TID 0000.0001) tAlpha =   /* Linear EOS thermal expansion coefficient ( 1/degree ) */
(PID.TID 0000.0001)                 2.000000000000000E-04
(PID.TID 0000.0001)     ;
(PID.TID 0000.0001) sBeta =   /* Linear EOS haline contraction coefficient ( 1/ppt ) */
(PID.TID 0000.0001)                 7.400000000000000E-04
(PID.TID 0000.0001)     ;
(PID.TID 0000.0001)   1  13.499  32.600  24.480  -0.201   0.771  -0.005  -0.002   0.000   0.000   0.000   0.000   0.000
(PID.TID 0000.0001)   2  13.498  32.600  24.525  -0.202   0.771  -0.005  -0.002   0.000   0.000   0.000   0.000   0.000
(PID.TID 0000.0001)   3  13.496  32.600  24.581  -0.202   0.771  -0.005  -0.002   0.000   0.000   0.000   0.000   0.000
(PID.TID 0000.0001)   4  13.494  32.600  24.660  -0.202   0.771  -0.005  -0.002   0.000   0.000   0.000   0.000   0.000
(PID.TID 0000.0001)   5  13.491  32.600  24.750  -0.203   0.771  -0.005  -0.002   0.000   0.000   0.000   0.000   0.000
(PID.TID 0000.0001)   6  13.488  32.600  24.851  -0.203   0.770  -0.005  -0.002   0.000   0.000   0.000   0.000   0.000
(PID.TID 0000.0001)   7  13.484  32.600  24.985  -0.204   0.770  -0.005  -0.002   0.000   0.000   0.000   0.000   0.000
(PID.TID 0000.0001)   8  13.478  32.600  25.176  -0.204   0.770  -0.005  -0.002   0.000   0.000   0.000   0.000   0.000
(PID.TID 0000.0001)   9  13.469  32.600  25.456  -0.205   0.769  -0.005  -0.002   0.000   0.000   0.000   0.000   0.000
(PID.TID 0000.0001)  10   8.467  35.150  28.748  -0.163   0.781  -0.005  -0.002   0.001   0.000   0.000   0.000   0.000
(PID.TID 0000.0001)  11   8.454  35.150  29.315  -0.166   0.780  -0.005  -0.002   0.001   0.000   0.000   0.000   0.000
(PID.TID 0000.0001)  12   5.946  34.900  30.300  -0.143   0.785  -0.006  -0.002   0.001   0.000   0.000   0.000   0.000
(PID.TID 0000.0001)  13   4.433  34.900  31.591  -0.132   0.786  -0.006  -0.003   0.000   0.000   0.000   0.000   0.000
(PID.TID 0000.0001)  14   3.909  34.750  32.966  -0.134   0.785  -0.006  -0.003   0.000   0.000   0.000   0.000   0.000
(PID.TID 0000.0001)  15   1.899  34.800  35.002  -0.121   0.787  -0.006  -0.003   0.000   0.000   0.000   0.000   0.000
(PID.TID 0000.0001)  16   1.372  34.750  36.991  -0.127   0.785  -0.006  -0.003  -0.001   0.000   0.000   0.000   0.000
(PID.TID 0000.0001)  17   1.332  34.800  39.171  -0.140   0.782  -0.006  -0.003  -0.001   0.000   0.000   0.000   0.000
(PID.TID 0000.0001)  18   0.797  34.800  41.472  -0.147   0.779  -0.006  -0.003  -0.001   0.000   0.000   0.000   0.000
(PID.TID 0000.0001)  19   0.749  34.800  43.682  -0.160   0.775  -0.005  -0.002  -0.002   0.000   0.000   0.000   0.000
(PID.TID 0000.0001)  20   0.214  34.750  45.912  -0.168   0.772  -0.005  -0.002  -0.002   0.000   0.000   0.000   0.000
(PID.TID 0000.0001)  21   0.160  34.750  48.080  -0.181   0.768  -0.005  -0.002  -0.003   0.000   0.000   0.000   0.000
(PID.TID 0000.0001)  22   0.584  34.750  50.131  -0.197   0.763  -0.005  -0.002  -0.001   0.000   0.000   0.000   0.000
(PID.TID 0000.0001)  23   0.522  34.750  52.248  -0.209   0.760  -0.005  -0.002  -0.002   0.000   0.000   0.000   0.000
(PID.TID 0000.0001) rhonil =   /* Reference density ( kg/m^3 ) */
(PID.TID 0000.0001)                 9.998000000000000E+02
(PID.TID 0000.0001)     ;
(PID.TID 0000.0001) rhoConst =   /* Reference density ( kg/m^3 ) */
(PID.TID 0000.0001)                 9.998000000000000E+02
(PID.TID 0000.0001)     ;
(PID.TID 0000.0001) gravity =   /* Gravitational acceleration ( m/s^2 ) */
(PID.TID 0000.0001)                 9.810000000000000E+00
(PID.TID 0000.0001)     ;
(PID.TID 0000.0001) gBaro =   /* Barotropic gravity ( m/s^2 ) */
(PID.TID 0000.0001)                 9.810000000000000E+00
(PID.TID 0000.0001)     ;
(PID.TID 0000.0001) f0 =   /* Reference coriolis parameter ( 1/s ) */
(PID.TID 0000.0001)                 1.000000000000000E-04
(PID.TID 0000.0001)     ;
(PID.TID 0000.0001) beta =   /* Beta ( 1/(m.s) ) */
(PID.TID 0000.0001)                 9.999999999999999E-12
(PID.TID 0000.0001)     ;
(PID.TID 0000.0001) freeSurfFac =   /* Implicit free surface factor */
(PID.TID 0000.0001)                 1.000000000000000E+00
(PID.TID 0000.0001)     ;
(PID.TID 0000.0001) implicitFreeSurface =   /* Implicit free surface on/off flag */
(PID.TID 0000.0001)                   T
(PID.TID 0000.0001)     ;
(PID.TID 0000.0001) rigidLid =   /* Rigid lid on/off flag */
(PID.TID 0000.0001)                   F
(PID.TID 0000.0001)     ;
(PID.TID 0000.0001) implicSurfPress =   /* Surface Pressure implicit factor (0-1)*/
(PID.TID 0000.0001)                 1.000000000000000E+00
(PID.TID 0000.0001)     ;
(PID.TID 0000.0001) implicDiv2Dflow =   /* Barot. Flow Div. implicit factor (0-1)*/
(PID.TID 0000.0001)                 1.000000000000000E+00
(PID.TID 0000.0001)     ;
(PID.TID 0000.0001) staggerTimeStep =   /* Stagger time stepping on/off flag */
(PID.TID 0000.0001)                   F
(PID.TID 0000.0001)     ;
(PID.TID 0000.0001) momStepping =  /* Momentum equation on/off flag */
(PID.TID 0000.0001)                   T
(PID.TID 0000.0001)     ;
(PID.TID 0000.0001) momAdvection =  /* Momentum advection on/off flag */
(PID.TID 0000.0001)                   T
(PID.TID 0000.0001)     ;
(PID.TID 0000.0001) momViscosity =  /* Momentum viscosity on/off flag */
(PID.TID 0000.0001)                   T
(PID.TID 0000.0001)     ;
(PID.TID 0000.0001) useCoriolis =  /* Coriolis on/off flag */
(PID.TID 0000.0001)                   T
(PID.TID 0000.0001)     ;
(PID.TID 0000.0001) momForcing =  /* Momentum forcing on/off flag */
(PID.TID 0000.0001)                   T
(PID.TID 0000.0001)     ;
(PID.TID 0000.0001) momPressureForcing =  /* Momentum pressure term on/off flag */
(PID.TID 0000.0001)                   T
(PID.TID 0000.0001)     ;
(PID.TID 0000.0001) tempStepping =  /* Temperature equation on/off flag */
(PID.TID 0000.0001)                   T
(PID.TID 0000.0001)     ;
(PID.TID 0000.0001) nonHydrostatic =  /* Non-Hydrostatic on/off flag */
(PID.TID 0000.0001)                   F
(PID.TID 0000.0001)     ;
(PID.TID 0000.0001) //
(PID.TID 0000.0001) // Elliptic solver(s) paramters ( PARM02 in namelist )
(PID.TID 0000.0001) //
(PID.TID 0000.0001) cg2dMaxIters =   /* Upper limit on 2d con. grad iterations  */
(PID.TID 0000.0001)                    1000
(PID.TID 0000.0001)     ;
(PID.TID 0000.0001) cg2dChkResFreq =   /* 2d con. grad convergence test frequency */
(PID.TID 0000.0001)                       1
(PID.TID 0000.0001)     ;
(PID.TID 0000.0001) cg2dTargetResidual =   /* 2d con. grad target residual  */
(PID.TID 0000.0001)                 1.000000000000000E-13
(PID.TID 0000.0001)     ;
(PID.TID 0000.0001) //
(PID.TID 0000.0001) // Time stepping paramters ( PARM03 in namelist )
(PID.TID 0000.0001) //
(PID.TID 0000.0001) nIter0 =   /* Base timestep number  */
(PID.TID 0000.0001)                       0
(PID.TID 0000.0001)     ;
(PID.TID 0000.0001) nTimeSteps =   /* Number of timesteps */
(PID.TID 0000.0001)                      20
(PID.TID 0000.0001)     ;
(PID.TID 0000.0001) deltatTmom =   /* Momentum equation timestep ( s ) */
(PID.TID 0000.0001)                 3.600000000000000E+03
(PID.TID 0000.0001)     ;
(PID.TID 0000.0001) deltatTtracer =   /* Tracer equation timestep ( s ) */
(PID.TID 0000.0001)                 3.600000000000000E+03
(PID.TID 0000.0001)     ;
(PID.TID 0000.0001) deltatTClock  =   /* Model clock timestep ( s ) */
(PID.TID 0000.0001)                 3.600000000000000E+03
(PID.TID 0000.0001)     ;
(PID.TID 0000.0001) cAdjFreq =   /* Convective adjustment interval ( s ) */
(PID.TID 0000.0001)                 0.000000000000000E+00
(PID.TID 0000.0001)     ;
(PID.TID 0000.0001) abeps =   /* Adams-Bashforth stabilizing weight */
(PID.TID 0000.0001)                 1.000000000000000E-01
(PID.TID 0000.0001)     ;
(PID.TID 0000.0001) tauCD =   /* CD coupling time-scale ( s ) */
(PID.TID 0000.0001)                 1.728000000000000E+05
(PID.TID 0000.0001)     ;
(PID.TID 0000.0001) rCD =   /* Normalised CD coupling parameter */
(PID.TID 0000.0001)                 9.791666666666666E-01
(PID.TID 0000.0001)     ;
(PID.TID 0000.0001) startTime =   /* Run start time ( s ). */
(PID.TID 0000.0001)                 0.000000000000000E+00
(PID.TID 0000.0001)     ;
(PID.TID 0000.0001) endTime =   /* Integration ending time ( s ). */
(PID.TID 0000.0001)                 7.200000000000000E+04
(PID.TID 0000.0001)     ;
(PID.TID 0000.0001) pChkPtFreq =   /* Permanent restart/checkpoint file interval ( s ). */
(PID.TID 0000.0001)                 0.000000000000000E+00
(PID.TID 0000.0001)     ;
(PID.TID 0000.0001) chkPtFreq =   /* Rolling restart/checkpoint file interval ( s ). */
(PID.TID 0000.0001)                 0.000000000000000E+00
(PID.TID 0000.0001)     ;
(PID.TID 0000.0001) dumpFreq =   /* Model state write out interval ( s ). */
(PID.TID 0000.0001)                 8.640000000000000E+05
(PID.TID 0000.0001)     ;
(PID.TID 0000.0001) //
(PID.TID 0000.0001) // Gridding paramters ( PARM04 in namelist )
(PID.TID 0000.0001) //
(PID.TID 0000.0001) usingCartesianGrid =   /* Cartesian coordinates flag ( True / False ) */
(PID.TID 0000.0001)                   F
(PID.TID 0000.0001)     ;
(PID.TID 0000.0001) usingSphericalPolarGrid =   /* Spherical coordinates flag ( True / False ) */
(PID.TID 0000.0001)                   T
(PID.TID 0000.0001)     ;
(PID.TID 0000.0001) groundAtK1 =   /* Lower Boundary (ground) at the surface(k=1) ( T / F ) */
(PID.TID 0000.0001)                   F
(PID.TID 0000.0001)     ;
(PID.TID 0000.0001) Ro_SeaLevel =   /* r(1) ( units of r ) */
(PID.TID 0000.0001)                 0.000000000000000E+00
(PID.TID 0000.0001)     ;
(PID.TID 0000.0001) rkFac =   /* minus Vertical index orientation  */
(PID.TID 0000.0001)                 1.000000000000000E+00
(PID.TID 0000.0001)     ;
(PID.TID 0000.0001) horiVertRatio =   /* Ratio on units : Horiz - Vertical */
(PID.TID 0000.0001)                 1.000000000000000E+00
(PID.TID 0000.0001)     ;
(PID.TID 0000.0001) delZ =   /* W spacing ( m ) */
(PID.TID 0000.0001)     2 @  1.000000000000000E+01,             /* K =  1:  2 */
(PID.TID 0000.0001)                 1.500000000000000E+01,      /* K =  3 */
(PID.TID 0000.0001)     2 @  2.000000000000000E+01,             /* K =  4:  5 */
(PID.TID 0000.0001)                 2.500000000000000E+01,      /* K =  6 */
(PID.TID 0000.0001)                 3.500000000000000E+01,      /* K =  7 */
(PID.TID 0000.0001)                 5.000000000000000E+01,      /* K =  8 */
(PID.TID 0000.0001)                 7.500000000000000E+01,      /* K =  9 */
(PID.TID 0000.0001)                 1.000000000000000E+02,      /* K = 10 */
(PID.TID 0000.0001)                 1.500000000000000E+02,      /* K = 11 */
(PID.TID 0000.0001)                 2.000000000000000E+02,      /* K = 12 */
(PID.TID 0000.0001)                 2.750000000000000E+02,      /* K = 13 */
(PID.TID 0000.0001)                 3.500000000000000E+02,      /* K = 14 */
(PID.TID 0000.0001)                 4.150000000000000E+02,      /* K = 15 */
(PID.TID 0000.0001)                 4.500000000000000E+02,      /* K = 16 */
(PID.TID 0000.0001)     7 @  5.000000000000000E+02              /* K = 17: 23 */
(PID.TID 0000.0001)     ;
(PID.TID 0000.0001) delP =   /* W spacing ( Pa ) */
(PID.TID 0000.0001)    23 @  1.234567000000000E+05              /* K =  1: 23 */
(PID.TID 0000.0001)     ;
(PID.TID 0000.0001) delR =   /* W spacing ( units of r ) */
(PID.TID 0000.0001)     2 @  1.000000000000000E+01,             /* K =  1:  2 */
(PID.TID 0000.0001)                 1.500000000000000E+01,      /* K =  3 */
(PID.TID 0000.0001)     2 @  2.000000000000000E+01,             /* K =  4:  5 */
(PID.TID 0000.0001)                 2.500000000000000E+01,      /* K =  6 */
(PID.TID 0000.0001)                 3.500000000000000E+01,      /* K =  7 */
(PID.TID 0000.0001)                 5.000000000000000E+01,      /* K =  8 */
(PID.TID 0000.0001)                 7.500000000000000E+01,      /* K =  9 */
(PID.TID 0000.0001)                 1.000000000000000E+02,      /* K = 10 */
(PID.TID 0000.0001)                 1.500000000000000E+02,      /* K = 11 */
(PID.TID 0000.0001)                 2.000000000000000E+02,      /* K = 12 */
(PID.TID 0000.0001)                 2.750000000000000E+02,      /* K = 13 */
(PID.TID 0000.0001)                 3.500000000000000E+02,      /* K = 14 */
(PID.TID 0000.0001)                 4.150000000000000E+02,      /* K = 15 */
(PID.TID 0000.0001)                 4.500000000000000E+02,      /* K = 16 */
(PID.TID 0000.0001)     7 @  5.000000000000000E+02              /* K = 17: 23 */
(PID.TID 0000.0001)     ;
(PID.TID 0000.0001) delX =   /* U spacing ( m - cartesian, degrees - spherical ) */
(PID.TID 0000.0001)    20 @  2.000000000000000E+00              /* I =  1: 20 */
(PID.TID 0000.0001)     ;
(PID.TID 0000.0001) delY =   /* V spacing ( m - cartesian, degrees - spherical ) */
(PID.TID 0000.0001)    16 @  2.000000000000000E+00              /* J =  1: 16 */
(PID.TID 0000.0001)     ;
(PID.TID 0000.0001) phiMin =    /* South edge (ignored - cartesian, degrees - spherical ) */
(PID.TID 0000.0001)                 1.000000000000000E+01
(PID.TID 0000.0001)     ;
(PID.TID 0000.0001) thetaMin =    /* West edge ( ignored - cartesian, degrees - spherical ) */
(PID.TID 0000.0001)                -4.200000000000000E+01
(PID.TID 0000.0001)     ;
(PID.TID 0000.0001) rSphere =    /* Radius ( ignored - cartesian, m - spherical ) */
(PID.TID 0000.0001)                 6.370000000000000E+06
(PID.TID 0000.0001)     ;
(PID.TID 0000.0001) xcoord =   /* P-point X coord ( m - cartesian, degrees - spherical ) */
(PID.TID 0000.0001)                -4.100000000000000E+01,      /* I =  1 */
(PID.TID 0000.0001)                -3.900000000000000E+01,      /* I =  2 */
(PID.TID 0000.0001)                -3.700000000000000E+01,      /* I =  3 */
(PID.TID 0000.0001)                -3.500000000000000E+01,      /* I =  4 */
(PID.TID 0000.0001)                -3.300000000000000E+01,      /* I =  5 */
(PID.TID 0000.0001)                -3.100000000000000E+01,      /* I =  6 */
(PID.TID 0000.0001)                -2.900000000000000E+01,      /* I =  7 */
(PID.TID 0000.0001)                -2.700000000000000E+01,      /* I =  8 */
(PID.TID 0000.0001)                -2.500000000000000E+01,      /* I =  9 */
(PID.TID 0000.0001)                -2.300000000000000E+01,      /* I = 10 */
(PID.TID 0000.0001)                -2.100000000000000E+01,      /* I = 11 */
(PID.TID 0000.0001)                -1.900000000000000E+01,      /* I = 12 */
(PID.TID 0000.0001)                -1.700000000000000E+01,      /* I = 13 */
(PID.TID 0000.0001)                -1.500000000000000E+01,      /* I = 14 */
(PID.TID 0000.0001)                -1.300000000000000E+01,      /* I = 15 */
(PID.TID 0000.0001)                -1.100000000000000E+01,      /* I = 16 */
(PID.TID 0000.0001)                -9.000000000000000E+00,      /* I = 17 */
(PID.TID 0000.0001)                -7.000000000000000E+00,      /* I = 18 */
(PID.TID 0000.0001)                -5.000000000000000E+00,      /* I = 19 */
(PID.TID 0000.0001)                -3.000000000000000E+00       /* I = 20 */
(PID.TID 0000.0001)     ;
(PID.TID 0000.0001) ycoord =   /* P-point Y coord ( m - cartesian, degrees - spherical ) */
(PID.TID 0000.0001)                 1.100000000000000E+01,      /* J =  1 */
(PID.TID 0000.0001)                 1.300000000000000E+01,      /* J =  2 */
(PID.TID 0000.0001)                 1.500000000000000E+01,      /* J =  3 */
(PID.TID 0000.0001)                 1.700000000000000E+01,      /* J =  4 */
(PID.TID 0000.0001)                 1.900000000000000E+01,      /* J =  5 */
(PID.TID 0000.0001)                 2.100000000000000E+01,      /* J =  6 */
(PID.TID 0000.0001)                 2.300000000000000E+01,      /* J =  7 */
(PID.TID 0000.0001)                 2.500000000000000E+01,      /* J =  8 */
(PID.TID 0000.0001)                 2.700000000000000E+01,      /* J =  9 */
(PID.TID 0000.0001)                 2.900000000000000E+01,      /* J = 10 */
(PID.TID 0000.0001)                 3.100000000000000E+01,      /* J = 11 */
(PID.TID 0000.0001)                 3.300000000000000E+01,      /* J = 12 */
(PID.TID 0000.0001)                 3.500000000000000E+01,      /* J = 13 */
(PID.TID 0000.0001)                 3.700000000000000E+01,      /* J = 14 */
(PID.TID 0000.0001)                 3.900000000000000E+01,      /* J = 15 */
(PID.TID 0000.0001)                 4.100000000000000E+01       /* J = 16 */
(PID.TID 0000.0001)     ;
(PID.TID 0000.0001) rcoord =   /* P-point R coordinate (  units of r ) */
(PID.TID 0000.0001)                -5.000000000000000E+00,      /* K =  1 */
(PID.TID 0000.0001)                -1.500000000000000E+01,      /* K =  2 */
(PID.TID 0000.0001)                -2.750000000000000E+01,      /* K =  3 */
(PID.TID 0000.0001)                -4.500000000000000E+01,      /* K =  4 */
(PID.TID 0000.0001)                -6.500000000000000E+01,      /* K =  5 */
(PID.TID 0000.0001)                -8.750000000000000E+01,      /* K =  6 */
(PID.TID 0000.0001)                -1.175000000000000E+02,      /* K =  7 */
(PID.TID 0000.0001)                -1.600000000000000E+02,      /* K =  8 */
(PID.TID 0000.0001)                -2.225000000000000E+02,      /* K =  9 */
(PID.TID 0000.0001)                -3.100000000000000E+02,      /* K = 10 */
(PID.TID 0000.0001)                -4.350000000000000E+02,      /* K = 11 */
(PID.TID 0000.0001)                -6.100000000000000E+02,      /* K = 12 */
(PID.TID 0000.0001)                -8.475000000000000E+02,      /* K = 13 */
(PID.TID 0000.0001)                -1.160000000000000E+03,      /* K = 14 */
(PID.TID 0000.0001)                -1.542500000000000E+03,      /* K = 15 */
(PID.TID 0000.0001)                -1.975000000000000E+03,      /* K = 16 */
(PID.TID 0000.0001)                -2.450000000000000E+03,      /* K = 17 */
(PID.TID 0000.0001)                -2.950000000000000E+03,      /* K = 18 */
(PID.TID 0000.0001)                -3.450000000000000E+03,      /* K = 19 */
(PID.TID 0000.0001)                -3.950000000000000E+03,      /* K = 20 */
(PID.TID 0000.0001)                -4.450000000000000E+03,      /* K = 21 */
(PID.TID 0000.0001)                -4.950000000000000E+03,      /* K = 22 */
(PID.TID 0000.0001)                -5.450000000000000E+03       /* K = 23 */
(PID.TID 0000.0001)     ;
(PID.TID 0000.0001) dxF =  /* dxF(:,1,:,1) ( m - cartesian, degrees - spherical ) */
(PID.TID 0000.0001)    20 @  2.182696600587791E+05              /* I =  1: 20 */
(PID.TID 0000.0001)     ;
(PID.TID 0000.0001) dxF =  /* dxF(1,:,1,:) ( m - cartesian, degrees - spherical ) */
(PID.TID 0000.0001)                 2.182696600587791E+05,      /* J =  1 */
(PID.TID 0000.0001)                 2.166560038253696E+05,      /* J =  2 */
(PID.TID 0000.0001)                 2.147783856245979E+05,      /* J =  3 */
(PID.TID 0000.0001)                 2.126390930450167E+05,      /* J =  4 */
(PID.TID 0000.0001)                 2.102407324851014E+05,      /* J =  5 */
(PID.TID 0000.0001)                 2.075862259777553E+05,      /* J =  6 */
(PID.TID 0000.0001)                 2.046788076302621E+05,      /* J =  7 */
(PID.TID 0000.0001)                 2.015220196840248E+05,      /* J =  8 */
(PID.TID 0000.0001)                 1.981197081988899E+05,      /* J =  9 */
(PID.TID 0000.0001)                 1.944760183673163E+05,      /* J = 10 */
(PID.TID 0000.0001)                 1.905953894640962E+05,      /* J = 11 */
(PID.TID 0000.0001)                 1.864825494377833E+05,      /* J = 12 */
(PID.TID 0000.0001)                 1.821425091504150E+05,      /* J = 13 */
(PID.TID 0000.0001)                 1.775805562725496E+05,      /* J = 14 */
(PID.TID 0000.0001)                 1.728022488410539E+05,      /* J = 15 */
(PID.TID 0000.0001)                 1.678134084874912E+05       /* J = 16 */
(PID.TID 0000.0001)     ;
(PID.TID 0000.0001) dyF =  /* dyF(:,1,:,1) ( m - cartesian, degrees - spherical ) */
(PID.TID 0000.0001)    20 @  2.223549467040776E+05              /* I =  1: 20 */
(PID.TID 0000.0001)     ;
(PID.TID 0000.0001) dyF =  /* dyF(1,:,1,:) ( m - cartesian, degrees - spherical ) */
(PID.TID 0000.0001)    16 @  2.223549467040776E+05              /* J =  1: 16 */
(PID.TID 0000.0001)     ;
(PID.TID 0000.0001) dxG =  /* dxG(:,1,:,1) ( m - cartesian, degrees - spherical ) */
(PID.TID 0000.0001)    20 @  2.189768754347919E+05              /* I =  1: 20 */
(PID.TID 0000.0001)     ;
(PID.TID 0000.0001) dxG =  /* dxG(1,:,1,:) ( m - cartesian, degrees - spherical ) */
(PID.TID 0000.0001)                 2.189768754347919E+05,      /* J =  1 */
(PID.TID 0000.0001)                 2.174959576298867E+05,      /* J =  2 */
(PID.TID 0000.0001)                 2.157500545032934E+05,      /* J =  3 */
(PID.TID 0000.0001)                 2.137412931690361E+05,      /* J =  4 */
(PID.TID 0000.0001)                 2.114721209933746E+05,      /* J =  5 */
(PID.TID 0000.0001)                 2.089453026130656E+05,      /* J =  6 */
(PID.TID 0000.0001)                 2.061639165670792E+05,      /* J =  7 */
(PID.TID 0000.0001)                 2.031313515458727E+05,      /* J =  8 */
(PID.TID 0000.0001)                 1.998513022627935E+05,      /* J =  9 */
(PID.TID 0000.0001)                 1.963277649526403E+05,      /* J = 10 */
(PID.TID 0000.0001)                 1.925650325028661E+05,      /* J = 11 */
(PID.TID 0000.0001)                 1.885676892233566E+05,      /* J = 12 */
(PID.TID 0000.0001)                 1.843406052611542E+05,      /* J = 13 */
(PID.TID 0000.0001)                 1.798889306669345E+05,      /* J = 14 */
(PID.TID 0000.0001)                 1.752180891204627E+05,      /* J = 15 */
(PID.TID 0000.0001)                 1.703337713226752E+05       /* J = 16 */
(PID.TID 0000.0001)     ;
(PID.TID 0000.0001) dyG =  /* dyG(:,1,:,1) ( m - cartesian, degrees - spherical ) */
(PID.TID 0000.0001)    20 @  2.223549467040776E+05              /* I =  1: 20 */
(PID.TID 0000.0001)     ;
(PID.TID 0000.0001) dyG =  /* dyG(1,:,1,:) ( m - cartesian, degrees - spherical ) */
(PID.TID 0000.0001)    16 @  2.223549467040776E+05              /* J =  1: 16 */
(PID.TID 0000.0001)     ;
(PID.TID 0000.0001) dxC =  /* dxC(:,1,:,1) ( m - cartesian, degrees - spherical ) */
(PID.TID 0000.0001)    20 @  2.182696600587791E+05              /* I =  1: 20 */
(PID.TID 0000.0001)     ;
(PID.TID 0000.0001) dxC =  /* dxC(1,:,1,:) ( m - cartesian, degrees - spherical ) */
(PID.TID 0000.0001)                 2.182696600587791E+05,      /* J =  1 */
(PID.TID 0000.0001)                 2.166560038253696E+05,      /* J =  2 */
(PID.TID 0000.0001)                 2.147783856245979E+05,      /* J =  3 */
(PID.TID 0000.0001)                 2.126390930450167E+05,      /* J =  4 */
(PID.TID 0000.0001)                 2.102407324851014E+05,      /* J =  5 */
(PID.TID 0000.0001)                 2.075862259777553E+05,      /* J =  6 */
(PID.TID 0000.0001)                 2.046788076302621E+05,      /* J =  7 */
(PID.TID 0000.0001)                 2.015220196840248E+05,      /* J =  8 */
(PID.TID 0000.0001)                 1.981197081988899E+05,      /* J =  9 */
(PID.TID 0000.0001)                 1.944760183673163E+05,      /* J = 10 */
(PID.TID 0000.0001)                 1.905953894640962E+05,      /* J = 11 */
(PID.TID 0000.0001)                 1.864825494377833E+05,      /* J = 12 */
(PID.TID 0000.0001)                 1.821425091504150E+05,      /* J = 13 */
(PID.TID 0000.0001)                 1.775805562725496E+05,      /* J = 14 */
(PID.TID 0000.0001)                 1.728022488410539E+05,      /* J = 15 */
(PID.TID 0000.0001)                 1.678134084874912E+05       /* J = 16 */
(PID.TID 0000.0001)     ;
(PID.TID 0000.0001) dyC =  /* dyC(:,1,:,1) ( m - cartesian, degrees - spherical ) */
(PID.TID 0000.0001)    20 @  2.223549467040776E+05              /* I =  1: 20 */
(PID.TID 0000.0001)     ;
(PID.TID 0000.0001) dyC =  /* dyC(1,:,1,:) ( m - cartesian, degrees - spherical ) */
(PID.TID 0000.0001)    16 @  2.223549467040776E+05              /* J =  1: 16 */
(PID.TID 0000.0001)     ;
(PID.TID 0000.0001) dxV =  /* dxV(:,1,:,1) ( m - cartesian, degrees - spherical ) */
(PID.TID 0000.0001)    20 @  2.189768754347919E+05              /* I =  1: 20 */
(PID.TID 0000.0001)     ;
(PID.TID 0000.0001) dxV =  /* dxV(1,:,1,:) ( m - cartesian, degrees - spherical ) */
(PID.TID 0000.0001)                 2.189768754347919E+05,      /* J =  1 */
(PID.TID 0000.0001)                 2.174959576298867E+05,      /* J =  2 */
(PID.TID 0000.0001)                 2.157500545032934E+05,      /* J =  3 */
(PID.TID 0000.0001)                 2.137412931690361E+05,      /* J =  4 */
(PID.TID 0000.0001)                 2.114721209933746E+05,      /* J =  5 */
(PID.TID 0000.0001)                 2.089453026130656E+05,      /* J =  6 */
(PID.TID 0000.0001)                 2.061639165670792E+05,      /* J =  7 */
(PID.TID 0000.0001)                 2.031313515458727E+05,      /* J =  8 */
(PID.TID 0000.0001)                 1.998513022627935E+05,      /* J =  9 */
(PID.TID 0000.0001)                 1.963277649526403E+05,      /* J = 10 */
(PID.TID 0000.0001)                 1.925650325028661E+05,      /* J = 11 */
(PID.TID 0000.0001)                 1.885676892233566E+05,      /* J = 12 */
(PID.TID 0000.0001)                 1.843406052611542E+05,      /* J = 13 */
(PID.TID 0000.0001)                 1.798889306669345E+05,      /* J = 14 */
(PID.TID 0000.0001)                 1.752180891204627E+05,      /* J = 15 */
(PID.TID 0000.0001)                 1.703337713226752E+05       /* J = 16 */
(PID.TID 0000.0001)     ;
(PID.TID 0000.0001) dyU =  /* dyU(:,1,:,1) ( m - cartesian, degrees - spherical ) */
(PID.TID 0000.0001)    20 @  2.223549467040776E+05              /* I =  1: 20 */
(PID.TID 0000.0001)     ;
(PID.TID 0000.0001) dyU =  /* dyU(1,:,1,:) ( m - cartesian, degrees - spherical ) */
(PID.TID 0000.0001)    16 @  2.223549467040776E+05              /* J =  1: 16 */
(PID.TID 0000.0001)     ;
(PID.TID 0000.0001) rA =  /* rA(:,1,:,1) ( m - cartesian, degrees - spherical ) */
(PID.TID 0000.0001)    20 @  4.853087465028468E+10              /* I =  1: 20 */
(PID.TID 0000.0001)     ;
(PID.TID 0000.0001) rA =  /* rA(1,:,1,:) ( m - cartesian, degrees - spherical ) */
(PID.TID 0000.0001)                 4.853087465028468E+10,      /* J =  1 */
(PID.TID 0000.0001)                 4.817208842057613E+10,      /* J =  2 */
(PID.TID 0000.0001)                 4.775461192146853E+10,      /* J =  3 */
(PID.TID 0000.0001)                 4.727895378376868E+10,      /* J =  4 */
(PID.TID 0000.0001)                 4.674569352364783E+10,      /* J =  5 */
(PID.TID 0000.0001)                 4.615548083659052E+10,      /* J =  6 */
(PID.TID 0000.0001)                 4.550903480584068E+10,      /* J =  7 */
(PID.TID 0000.0001)                 4.480714302630919E+10,      /* J =  8 */
(PID.TID 0000.0001)                 4.405066064501150E+10,      /* J =  9 */
(PID.TID 0000.0001)                 4.324050931920189E+10,      /* J = 10 */
(PID.TID 0000.0001)                 4.237767609347689E+10,      /* J = 11 */
(PID.TID 0000.0001)                 4.146321219721243E+10,      /* J = 12 */
(PID.TID 0000.0001)                 4.049823176380376E+10,      /* J = 13 */
(PID.TID 0000.0001)                 3.948391047326554E+10,      /* J = 14 */
(PID.TID 0000.0001)                 3.842148411984555E+10,      /* J = 15 */
(PID.TID 0000.0001)                 3.731224710640170E+10       /* J = 16 */
(PID.TID 0000.0001)     ;
(PID.TID 0000.0001) rAw =  /* rAw(:,1,:,1) ( m - cartesian, degrees - spherical ) */
(PID.TID 0000.0001)    20 @  4.853087465028468E+10              /* I =  1: 20 */
(PID.TID 0000.0001)     ;
(PID.TID 0000.0001) rAw =  /* rAw(1,:,1,:) ( m - cartesian, degrees - spherical ) */
(PID.TID 0000.0001)                 4.853087465028468E+10,      /* J =  1 */
(PID.TID 0000.0001)                 4.817208842057613E+10,      /* J =  2 */
(PID.TID 0000.0001)                 4.775461192146853E+10,      /* J =  3 */
(PID.TID 0000.0001)                 4.727895378376868E+10,      /* J =  4 */
(PID.TID 0000.0001)                 4.674569352364783E+10,      /* J =  5 */
(PID.TID 0000.0001)                 4.615548083659052E+10,      /* J =  6 */
(PID.TID 0000.0001)                 4.550903480584068E+10,      /* J =  7 */
(PID.TID 0000.0001)                 4.480714302630919E+10,      /* J =  8 */
(PID.TID 0000.0001)                 4.405066064501150E+10,      /* J =  9 */
(PID.TID 0000.0001)                 4.324050931920189E+10,      /* J = 10 */
(PID.TID 0000.0001)                 4.237767609347689E+10,      /* J = 11 */
(PID.TID 0000.0001)                 4.146321219721243E+10,      /* J = 12 */
(PID.TID 0000.0001)                 4.049823176380376E+10,      /* J = 13 */
(PID.TID 0000.0001)                 3.948391047326554E+10,      /* J = 14 */
(PID.TID 0000.0001)                 3.842148411984555E+10,      /* J = 15 */
(PID.TID 0000.0001)                 3.731224710640170E+10       /* J = 16 */
(PID.TID 0000.0001)     ;
(PID.TID 0000.0001) rAs =  /* rAs(:,1,:,1) ( m - cartesian, degrees - spherical ) */
(PID.TID 0000.0001)    20 @  4.868811950398895E+10              /* I =  1: 20 */
(PID.TID 0000.0001)     ;
(PID.TID 0000.0001) rAs =  /* rAs(1,:,1,:) ( m - cartesian, degrees - spherical ) */
(PID.TID 0000.0001)                 4.868811950398895E+10,      /* J =  1 */
(PID.TID 0000.0001)                 4.835884682203275E+10,      /* J =  2 */
(PID.TID 0000.0001)                 4.797065633433311E+10,      /* J =  3 */
(PID.TID 0000.0001)                 4.752402099120341E+10,      /* J =  4 */
(PID.TID 0000.0001)                 4.701948494900998E+10,      /* J =  5 */
(PID.TID 0000.0001)                 4.645766290720268E+10,      /* J =  6 */
(PID.TID 0000.0001)                 4.583923935939733E+10,      /* J =  7 */
(PID.TID 0000.0001)                 4.516496775942609E+10,      /* J =  8 */
(PID.TID 0000.0001)                 4.443566960336993E+10,      /* J =  9 */
(PID.TID 0000.0001)                 4.365223342869232E+10,      /* J = 10 */
(PID.TID 0000.0001)                 4.281561373169274E+10,      /* J = 11 */
(PID.TID 0000.0001)                 4.192682980460106E+10,      /* J = 12 */
(PID.TID 0000.0001)                 4.098696449372525E+10,      /* J = 13 */
(PID.TID 0000.0001)                 3.999716288017197E+10,      /* J = 14 */
(PID.TID 0000.0001)                 3.895863088473959E+10,      /* J = 15 */
(PID.TID 0000.0001)                 3.787263379869144E+10       /* J = 16 */
(PID.TID 0000.0001)     ;
(PID.TID 0000.0001) 
(PID.TID 0000.0001)  MDSREADFIELD: opening global file: kf_climtheta
(PID.TID 0000.0001) // =======================================================
(PID.TID 0000.0001) // Field Initial Temperature at iteration          1
(PID.TID 0000.0001) // CMIN =          1.840084838867188E+01
(PID.TID 0000.0001) // CMAX =          2.607793426513672E+01
(PID.TID 0000.0001) // CINT =          2.843365139431424E-01
(PID.TID 0000.0001) // SYMBOLS (CMIN->CMAX): -abcdefghijklmnopqrstuvwxyz+
(PID.TID 0000.0001) //                  0.0: .
(PID.TID 0000.0001) // RANGE I (Lo:Hi:Step):(   1:  20:   1)
(PID.TID 0000.0001) // RANGE J (Lo:Hi:Step):(  16:   1:  -1)
(PID.TID 0000.0001) // RANGE K (Lo:Hi:Step):(   1:   1:   1)
(PID.TID 0000.0001) // =======================================================
(PID.TID 0000.0001) K =   1
(PID.TID 0000.0001)                I=10      I=20
(PID.TID 0000.0001) |--J--|123456789|123456789|
(PID.TID 0000.0001)     16 ....................
(PID.TID 0000.0001)     15 .jihhgfeedddcba---a.
(PID.TID 0000.0001)     14 .kjiihggffeedcbbabb.
(PID.TID 0000.0001)     13 .lkkjiiiihgfedccbc..
(PID.TID 0000.0001)     12 .mllkkjjjihgfedcc...
(PID.TID 0000.0001)     11 .onnmmllkjihgfeec...
(PID.TID 0000.0001)     10 .rrqqponmmlkihf.....
(PID.TID 0000.0001)      9 .utssrqponmljh......
(PID.TID 0000.0001)      8 .vuttsrqponlig......
(PID.TID 0000.0001)      7 .vuutsrrponkif......
(PID.TID 0000.0001)      6 .wvvuutsrqomjh......
(PID.TID 0000.0001)      5 .yxwwwvutsrpnl......
(PID.TID 0000.0001)      4 .zyyyxxwwvutrq......
(PID.TID 0000.0001)      3 .zzzzyyxxxxwvu......
(PID.TID 0000.0001)      2 .+++++zzz+++zy......
(PID.TID 0000.0001)      1 ....................
(PID.TID 0000.0001) // =======================================================
(PID.TID 0000.0001) // END OF FIELD                                          =
(PID.TID 0000.0001) // =======================================================
(PID.TID 0000.0001) 
(PID.TID 0000.0001)  MDSREADFIELD: opening global file: kf_climsalt
(PID.TID 0000.0001) // =======================================================
(PID.TID 0000.0001) // Field Initial Salinity at iteration          1
(PID.TID 0000.0001) // CMIN =          3.501070022583008E+01
(PID.TID 0000.0001) // CMAX =          3.739887619018555E+01
(PID.TID 0000.0001) // CINT =          8.845096164279515E-02
(PID.TID 0000.0001) // SYMBOLS (CMIN->CMAX): -abcdefghijklmnopqrstuvwxyz+
(PID.TID 0000.0001) //                  0.0: .
(PID.TID 0000.0001) // RANGE I (Lo:Hi:Step):(   1:  20:   1)
(PID.TID 0000.0001) // RANGE J (Lo:Hi:Step):(  16:   1:  -1)
(PID.TID 0000.0001) // RANGE K (Lo:Hi:Step):(   1:   1:   1)
(PID.TID 0000.0001) // =======================================================
(PID.TID 0000.0001) K =   1
(PID.TID 0000.0001)                I=10      I=20
(PID.TID 0000.0001) |--J--|123456789|123456789|
(PID.TID 0000.0001)     16 ....................
(PID.TID 0000.0001)     15 .oonnnnmmnnnnnnmllk.
(PID.TID 0000.0001)     14 .ppppoooopppppppooo.
(PID.TID 0000.0001)     13 .qqqqqrrrrrrqqqqqq..
(PID.TID 0000.0001)     12 .tttttttttttssrqp...
(PID.TID 0000.0001)     11 .wwwwwwvvvvuusrpn...
(PID.TID 0000.0001)     10 .zzyyyyyxxwvusr.....
(PID.TID 0000.0001)      9 .++zzzzyxxwutr......
(PID.TID 0000.0001)      8 .+zzyyyxwvusrp......
(PID.TID 0000.0001)      7 .xxxxwwutsrpnm......
(PID.TID 0000.0001)      6 .uuuuutsqponlj......
(PID.TID 0000.0001)      5 .rrrrqqponmkji......
(PID.TID 0000.0001)      4 .poooonmmlkihg......
(PID.TID 0000.0001)      3 .mmlllllkjihec......
(PID.TID 0000.0001)      2 .jjjkkkjjihfd-......
(PID.TID 0000.0001)      1 ....................
(PID.TID 0000.0001) // =======================================================
(PID.TID 0000.0001) // END OF FIELD                                          =
(PID.TID 0000.0001) // =======================================================
(PID.TID 0000.0001) 
(PID.TID 0000.0001)  MDSREADFIELD: opening global file: kf_fu
(PID.TID 0000.0001)  MDSREADFIELD: opening global file: kf_fv
(PID.TID 0000.0001)  MDSREADFIELD: opening global file: kf_qnet
(PID.TID 0000.0001)  MDSREADFIELD: opening global file: kf_empmr
(PID.TID 0000.0001)  MDSREADFIELD: opening global file: kf_sst
(PID.TID 0000.0001)  MDSREADFIELD: opening global file: kf_sss
(PID.TID 0000.0001)  MDSREADFIELD: opening global file: kf_sw
(PID.TID 0000.0001) // =======================================================
(PID.TID 0000.0001) // Model current state
(PID.TID 0000.0001) // =======================================================
(PID.TID 0000.0001) 
(PID.TID 0000.0001) // =======================================================
(PID.TID 0000.0001) // Begin MONITOR dynamic field statistics
(PID.TID 0000.0001) // =======================================================
(PID.TID 0000.0001) %MON time_tsnumber                =                     0
(PID.TID 0000.0001) %MON time_secondsf                =   0.0000000000000E+00
(PID.TID 0000.0001) %MON time_secondsi                =                     0
(PID.TID 0000.0001) %MON dynstat_eta_max              =   0.0000000000000E+00
(PID.TID 0000.0001) %MON dynstat_eta_min              =   0.0000000000000E+00
(PID.TID 0000.0001) %MON dynstat_eta_mean             =   0.0000000000000E+00
(PID.TID 0000.0001) %MON dynstat_eta_sd               =   0.0000000000000E+00
(PID.TID 0000.0001) %MON dynstat_uvel_max             =   0.0000000000000E+00
(PID.TID 0000.0001) %MON dynstat_uvel_min             =   0.0000000000000E+00
(PID.TID 0000.0001) %MON dynstat_uvel_mean            =   0.0000000000000E+00
(PID.TID 0000.0001) %MON dynstat_uvel_sd              =   0.0000000000000E+00
(PID.TID 0000.0001) %MON dynstat_vvel_max             =   0.0000000000000E+00
(PID.TID 0000.0001) %MON dynstat_vvel_min             =   0.0000000000000E+00
(PID.TID 0000.0001) %MON dynstat_vvel_mean            =   0.0000000000000E+00
(PID.TID 0000.0001) %MON dynstat_vvel_sd              =   0.0000000000000E+00
(PID.TID 0000.0001) %MON dynstat_wvel_max             =   0.0000000000000E+00
(PID.TID 0000.0001) %MON dynstat_wvel_min             =   0.0000000000000E+00
(PID.TID 0000.0001) %MON dynstat_wvel_mean            =   0.0000000000000E+00
(PID.TID 0000.0001) %MON dynstat_wvel_sd              =   0.0000000000000E+00
(PID.TID 0000.0001) %MON dynstat_theta_max            =   2.6077934265137E+01
(PID.TID 0000.0001) %MON dynstat_theta_min            =   1.8064365386963E+00
(PID.TID 0000.0001) %MON dynstat_theta_mean           =   1.2442731729199E+01
(PID.TID 0000.0001) %MON dynstat_theta_sd             =   7.6450097635724E+00
(PID.TID 0000.0001) %MON dynstat_salt_max             =   3.7401638031006E+01
(PID.TID 0000.0001) %MON dynstat_salt_min             =   3.4726768493652E+01
(PID.TID 0000.0001) %MON dynstat_salt_mean            =   3.5764816359861E+01
(PID.TID 0000.0001) %MON dynstat_salt_sd              =   7.4188601259029E-01
(PID.TID 0000.0001) %MON advcfl_uvel_max              =   0.0000000000000E+00
(PID.TID 0000.0001) %MON advcfl_vvel_max              =   0.0000000000000E+00
(PID.TID 0000.0001) %MON advcfl_wvel_max              =   0.0000000000000E+00
(PID.TID 0000.0001) %MON advcfl_W_hf_max              =   0.0000000000000E+00
(PID.TID 0000.0001) %MON ke_max                       =   0.0000000000000E+00
(PID.TID 0000.0001) %MON ke_mean                      =   0.0000000000000E+00
(PID.TID 0000.0001) // =======================================================
(PID.TID 0000.0001) // End MONITOR dynamic field statistics
(PID.TID 0000.0001) // =======================================================
 S/R EXTERNAL_FIELDS_LOAD: Reading new data  0. 0
(PID.TID 0000.0001)  MDSREADFIELD: opening global file: kf_fu
(PID.TID 0000.0001)  MDSREADFIELD: opening global file: kf_fu
(PID.TID 0000.0001)  MDSREADFIELD: opening global file: kf_fv
(PID.TID 0000.0001)  MDSREADFIELD: opening global file: kf_fv
(PID.TID 0000.0001)  MDSREADFIELD: opening global file: kf_qnet
(PID.TID 0000.0001)  MDSREADFIELD: opening global file: kf_qnet
(PID.TID 0000.0001)  MDSREADFIELD: opening global file: kf_empmr
(PID.TID 0000.0001)  MDSREADFIELD: opening global file: kf_empmr
(PID.TID 0000.0001)  MDSREADFIELD: opening global file: kf_sst
(PID.TID 0000.0001)  MDSREADFIELD: opening global file: kf_sst
(PID.TID 0000.0001)  MDSREADFIELD: opening global file: kf_sss
(PID.TID 0000.0001)  MDSREADFIELD: opening global file: kf_sss
(PID.TID 0000.0001)  MDSREADFIELD: opening global file: kf_sw
(PID.TID 0000.0001)  MDSREADFIELD: opening global file: kf_sw
 cg2d: Sum(rhs),rhsMax =   5.30478438953708E-15  4.50737656360046E-01
(PID.TID 0000.0001)                    cg2d_init_res =    3.97960747080083E+00
(PID.TID 0000.0001)                       cg2d_iters =    50
(PID.TID 0000.0001)                         cg2d_res =    7.13208987923441E-14
(PID.TID 0000.0001) // =======================================================
(PID.TID 0000.0001) // Begin MONITOR dynamic field statistics
(PID.TID 0000.0001) // =======================================================
(PID.TID 0000.0001) %MON time_tsnumber                =                     1
(PID.TID 0000.0001) %MON time_secondsf                =   3.6000000000000E+03
(PID.TID 0000.0001) %MON time_secondsi                =                  3600
(PID.TID 0000.0001) %MON dynstat_eta_max              =   7.9831848646392E-02
(PID.TID 0000.0001) %MON dynstat_eta_min              =  -1.0327152670087E-01
(PID.TID 0000.0001) %MON dynstat_eta_mean             =  -2.9101321204740E-04
(PID.TID 0000.0001) %MON dynstat_eta_sd               =   3.4585291347769E-02
(PID.TID 0000.0001) %MON dynstat_uvel_max             =   5.3767310068707E-02
(PID.TID 0000.0001) %MON dynstat_uvel_min             =  -4.2462040483584E-02
(PID.TID 0000.0001) %MON dynstat_uvel_mean            =  -1.4536574653932E-03
(PID.TID 0000.0001) %MON dynstat_uvel_sd              =   4.0168959295868E-03
(PID.TID 0000.0001) %MON dynstat_vvel_max             =   1.0121846303911E-02
(PID.TID 0000.0001) %MON dynstat_vvel_min             =  -2.9296628091431E-02
(PID.TID 0000.0001) %MON dynstat_vvel_mean            =  -8.8975073884578E-04
(PID.TID 0000.0001) %MON dynstat_vvel_sd              =   3.5432522987761E-03
(PID.TID 0000.0001) %MON dynstat_wvel_max             =   0.0000000000000E+00
(PID.TID 0000.0001) %MON dynstat_wvel_min             =   0.0000000000000E+00
(PID.TID 0000.0001) %MON dynstat_wvel_mean            =   0.0000000000000E+00
(PID.TID 0000.0001) %MON dynstat_wvel_sd              =   0.0000000000000E+00
(PID.TID 0000.0001) %MON dynstat_theta_max            =   2.6076654048020E+01
(PID.TID 0000.0001) %MON dynstat_theta_min            =   1.8064390104771E+00
(PID.TID 0000.0001) %MON dynstat_theta_mean           =   1.2443053821061E+01
(PID.TID 0000.0001) %MON dynstat_theta_sd             =   7.6453868646992E+00
(PID.TID 0000.0001) %MON dynstat_salt_max             =   3.7400751159636E+01
(PID.TID 0000.0001) %MON dynstat_salt_min             =   3.4726771995658E+01
(PID.TID 0000.0001) %MON dynstat_salt_mean            =   3.5764840292404E+01
(PID.TID 0000.0001) %MON dynstat_salt_sd              =   7.4190468897936E-01
(PID.TID 0000.0001) %MON advcfl_uvel_max              =   1.1201377154842E-03
(PID.TID 0000.0001) %MON advcfl_vvel_max              =   4.7432208139499E-04
(PID.TID 0000.0001) %MON advcfl_wvel_max              =   0.0000000000000E+00
(PID.TID 0000.0001) %MON advcfl_W_hf_max              =   0.0000000000000E+00
(PID.TID 0000.0001) %MON ke_max                       =   9.5687170714355E-04
(PID.TID 0000.0001) %MON ke_mean                      =   1.4363503648160E-05
(PID.TID 0000.0001) // =======================================================
(PID.TID 0000.0001) // End MONITOR dynamic field statistics
(PID.TID 0000.0001) // =======================================================
 S/R EXTERNAL_FIELDS_LOAD: Reading new data  3600. 1
(PID.TID 0000.0001)  MDSREADFIELD: opening global file: kf_fu
(PID.TID 0000.0001)  MDSREADFIELD: opening global file: kf_fu
(PID.TID 0000.0001)  MDSREADFIELD: opening global file: kf_fv
(PID.TID 0000.0001)  MDSREADFIELD: opening global file: kf_fv
(PID.TID 0000.0001)  MDSREADFIELD: opening global file: kf_qnet
(PID.TID 0000.0001)  MDSREADFIELD: opening global file: kf_qnet
(PID.TID 0000.0001)  MDSREADFIELD: opening global file: kf_empmr
(PID.TID 0000.0001)  MDSREADFIELD: opening global file: kf_empmr
(PID.TID 0000.0001)  MDSREADFIELD: opening global file: kf_sst
(PID.TID 0000.0001)  MDSREADFIELD: opening global file: kf_sst
(PID.TID 0000.0001)  MDSREADFIELD: opening global file: kf_sss
(PID.TID 0000.0001)  MDSREADFIELD: opening global file: kf_sss
(PID.TID 0000.0001)  MDSREADFIELD: opening global file: kf_sw
(PID.TID 0000.0001)  MDSREADFIELD: opening global file: kf_sw
 cg2d: Sum(rhs),rhsMax =   1.56819002228303E-15  5.55580894999383E-01
(PID.TID 0000.0001)                    cg2d_init_res =    9.18792760418024E-01
(PID.TID 0000.0001)                       cg2d_iters =    47
(PID.TID 0000.0001)                         cg2d_res =    7.05573642780588E-14
(PID.TID 0000.0001) // =======================================================
(PID.TID 0000.0001) // Begin MONITOR dynamic field statistics
(PID.TID 0000.0001) // =======================================================
(PID.TID 0000.0001) %MON time_tsnumber                =                     2
(PID.TID 0000.0001) %MON time_secondsf                =   7.2000000000000E+03
(PID.TID 0000.0001) %MON time_secondsi                =                  7200
(PID.TID 0000.0001) %MON dynstat_eta_max              =   1.4747680131363E-01
(PID.TID 0000.0001) %MON dynstat_eta_min              =  -1.8208426967038E-01
(PID.TID 0000.0001) %MON dynstat_eta_mean             =  -6.1236757041129E-04
(PID.TID 0000.0001) %MON dynstat_eta_sd               =   6.8213817870581E-02
(PID.TID 0000.0001) %MON dynstat_uvel_max             =   1.0408433363861E-01
(PID.TID 0000.0001) %MON dynstat_uvel_min             =  -7.3099133249719E-02
(PID.TID 0000.0001) %MON dynstat_uvel_mean            =  -1.7279856127548E-03
(PID.TID 0000.0001) %MON dynstat_uvel_sd              =   7.7589508461986E-03
(PID.TID 0000.0001) %MON dynstat_vvel_max             =   2.1344598039356E-02
(PID.TID 0000.0001) %MON dynstat_vvel_min             =  -5.3407811788346E-02
(PID.TID 0000.0001) %MON dynstat_vvel_mean            =  -1.7017176398749E-03
(PID.TID 0000.0001) %MON dynstat_vvel_sd              =   6.8213125465578E-03
(PID.TID 0000.0001) %MON dynstat_wvel_max             =   4.7438450209647E-05
(PID.TID 0000.0001) %MON dynstat_wvel_min             =  -9.2458472497103E-05
(PID.TID 0000.0001) %MON dynstat_wvel_mean            =  -4.6026158564460E-08
(PID.TID 0000.0001) %MON dynstat_wvel_sd              =   1.1878813405819E-05
(PID.TID 0000.0001) %MON dynstat_theta_max            =   2.6075142164144E+01
(PID.TID 0000.0001) %MON dynstat_theta_min            =   1.8064390241864E+00
(PID.TID 0000.0001) %MON dynstat_theta_mean           =   1.2443436874002E+01
(PID.TID 0000.0001) %MON dynstat_theta_sd             =   7.6457499209944E+00
(PID.TID 0000.0001) %MON dynstat_salt_max             =   3.7400673032955E+01
(PID.TID 0000.0001) %MON dynstat_salt_min             =   3.4726779359477E+01
(PID.TID 0000.0001) %MON dynstat_salt_mean            =   3.5764860701185E+01
(PID.TID 0000.0001) %MON dynstat_salt_sd              =   7.4191047125586E-01
(PID.TID 0000.0001) %MON advcfl_uvel_max              =   2.1683953976990E-03
(PID.TID 0000.0001) %MON advcfl_vvel_max              =   8.6469010601292E-04
(PID.TID 0000.0001) %MON advcfl_wvel_max              =   2.0654305340174E-02
(PID.TID 0000.0001) %MON advcfl_W_hf_max              =   2.0528089814574E-02
(PID.TID 0000.0001) %MON ke_max                       =   3.1033625744989E-03
(PID.TID 0000.0001) %MON ke_mean                      =   5.1175229589641E-05
(PID.TID 0000.0001) // =======================================================
(PID.TID 0000.0001) // End MONITOR dynamic field statistics
(PID.TID 0000.0001) // =======================================================
 cg2d: Sum(rhs),rhsMax =   2.33146835171283E-15  5.83480922429410E-01
(PID.TID 0000.0001)                    cg2d_init_res =    5.49843674778361E-01
(PID.TID 0000.0001)                       cg2d_iters =    46
(PID.TID 0000.0001)                         cg2d_res =    7.64355149564559E-14
(PID.TID 0000.0001) // =======================================================
(PID.TID 0000.0001) // Begin MONITOR dynamic field statistics
(PID.TID 0000.0001) // =======================================================
(PID.TID 0000.0001) %MON time_tsnumber                =                     3
(PID.TID 0000.0001) %MON time_secondsf                =   1.0800000000000E+04
(PID.TID 0000.0001) %MON time_secondsi                =                 10800
(PID.TID 0000.0001) %MON dynstat_eta_max              =   1.8595228854127E-01
(PID.TID 0000.0001) %MON dynstat_eta_min              =  -2.3829516680975E-01
(PID.TID 0000.0001) %MON dynstat_eta_mean             =  -1.0877698402173E-03
(PID.TID 0000.0001) %MON dynstat_eta_sd               =   9.2911668870923E-02
(PID.TID 0000.0001) %MON dynstat_uvel_max             =   1.4697163827944E-01
(PID.TID 0000.0001) %MON dynstat_uvel_min             =  -9.6705453731559E-02
(PID.TID 0000.0001) %MON dynstat_uvel_mean            =  -1.1892352505877E-03
(PID.TID 0000.0001) %MON dynstat_uvel_sd              =   1.1233746897699E-02
(PID.TID 0000.0001) %MON dynstat_vvel_max             =   3.1359585188255E-02
(PID.TID 0000.0001) %MON dynstat_vvel_min             =  -7.2709701157578E-02
(PID.TID 0000.0001) %MON dynstat_vvel_mean            =  -2.7149204619892E-03
(PID.TID 0000.0001) %MON dynstat_vvel_sd              =   9.5320302367464E-03
(PID.TID 0000.0001) %MON dynstat_wvel_max             =   7.5984121261977E-05
(PID.TID 0000.0001) %MON dynstat_wvel_min             =  -1.4301003071032E-04
(PID.TID 0000.0001) %MON dynstat_wvel_mean            =  -3.7955709986907E-08
(PID.TID 0000.0001) %MON dynstat_wvel_sd              =   1.6095601137934E-05
(PID.TID 0000.0001) %MON dynstat_theta_max            =   2.6073527663077E+01
(PID.TID 0000.0001) %MON dynstat_theta_min            =   1.8064395683377E+00
(PID.TID 0000.0001) %MON dynstat_theta_mean           =   1.2443773026882E+01
(PID.TID 0000.0001) %MON dynstat_theta_sd             =   7.6460759107750E+00
(PID.TID 0000.0001) %MON dynstat_salt_max             =   3.7400692070090E+01
(PID.TID 0000.0001) %MON dynstat_salt_min             =   3.4726785376275E+01
(PID.TID 0000.0001) %MON dynstat_salt_mean            =   3.5764885666154E+01
(PID.TID 0000.0001) %MON dynstat_salt_sd              =   7.4192453899673E-01
(PID.TID 0000.0001) %MON advcfl_uvel_max              =   3.0618692832676E-03
(PID.TID 0000.0001) %MON advcfl_vvel_max              =   1.1771940676258E-03
(PID.TID 0000.0001) %MON advcfl_wvel_max              =   1.6837673865355E-02
(PID.TID 0000.0001) %MON advcfl_W_hf_max              =   2.0933154590242E-02
(PID.TID 0000.0001) %MON ke_max                       =   6.2722590826406E-03
(PID.TID 0000.0001) %MON ke_mean                      =   1.0263977098082E-04
(PID.TID 0000.0001) // =======================================================
(PID.TID 0000.0001) // End MONITOR dynamic field statistics
(PID.TID 0000.0001) // =======================================================
 cg2d: Sum(rhs),rhsMax =  -3.96904731303493E-15  6.07089383270527E-01
(PID.TID 0000.0001)                    cg2d_init_res =    2.97163864712109E-01
(PID.TID 0000.0001)                       cg2d_iters =    47
(PID.TID 0000.0001)                         cg2d_res =    5.03565181029542E-14
(PID.TID 0000.0001) // =======================================================
(PID.TID 0000.0001) // Begin MONITOR dynamic field statistics
(PID.TID 0000.0001) // =======================================================
(PID.TID 0000.0001) %MON time_tsnumber                =                     4
(PID.TID 0000.0001) %MON time_secondsf                =   1.4400000000000E+04
(PID.TID 0000.0001) %MON time_secondsi                =                 14400
(PID.TID 0000.0001) %MON dynstat_eta_max              =   1.9627230979925E-01
(PID.TID 0000.0001) %MON dynstat_eta_min              =  -2.7139002269898E-01
(PID.TID 0000.0001) %MON dynstat_eta_mean             =  -1.7777776803193E-03
(PID.TID 0000.0001) %MON dynstat_eta_sd               =   1.0521905876101E-01
(PID.TID 0000.0001) %MON dynstat_uvel_max             =   1.7730273890601E-01
(PID.TID 0000.0001) %MON dynstat_uvel_min             =  -1.1582955898687E-01
(PID.TID 0000.0001) %MON dynstat_uvel_mean            =  -4.4233532427344E-04
(PID.TID 0000.0001) %MON dynstat_uvel_sd              =   1.4523708231974E-02
(PID.TID 0000.0001) %MON dynstat_vvel_max             =   3.9315084195005E-02
(PID.TID 0000.0001) %MON dynstat_vvel_min             =  -9.0546459775737E-02
(PID.TID 0000.0001) %MON dynstat_vvel_mean            =  -3.8230775774990E-03
(PID.TID 0000.0001) %MON dynstat_vvel_sd              =   1.1611263639848E-02
(PID.TID 0000.0001) %MON dynstat_wvel_max             =   9.8737538775482E-05
(PID.TID 0000.0001) %MON dynstat_wvel_min             =  -1.7306547523237E-04
(PID.TID 0000.0001) %MON dynstat_wvel_mean            =  -5.2644438352067E-08
(PID.TID 0000.0001) %MON dynstat_wvel_sd              =   1.9264127521468E-05
(PID.TID 0000.0001) %MON dynstat_theta_max            =   2.6071812802125E+01
(PID.TID 0000.0001) %MON dynstat_theta_min            =   1.8064406152496E+00
(PID.TID 0000.0001) %MON dynstat_theta_mean           =   1.2444066241501E+01
(PID.TID 0000.0001) %MON dynstat_theta_sd             =   7.6463694390883E+00
(PID.TID 0000.0001) %MON dynstat_salt_max             =   3.7400960444962E+01
(PID.TID 0000.0001) %MON dynstat_salt_min             =   3.4726790540921E+01
(PID.TID 0000.0001) %MON dynstat_salt_mean            =   3.5764915056773E+01
(PID.TID 0000.0001) %MON dynstat_salt_sd              =   7.4194663449122E-01
(PID.TID 0000.0001) %MON advcfl_uvel_max              =   3.6937589894952E-03
(PID.TID 0000.0001) %MON advcfl_vvel_max              =   1.4659770786501E-03
(PID.TID 0000.0001) %MON advcfl_wvel_max              =   1.4131636006761E-02
(PID.TID 0000.0001) %MON advcfl_W_hf_max              =   1.9921367516794E-02
(PID.TID 0000.0001) %MON ke_max                       =   9.3180678757276E-03
(PID.TID 0000.0001) %MON ke_mean                      =   1.6395287514207E-04
(PID.TID 0000.0001) // =======================================================
(PID.TID 0000.0001) // End MONITOR dynamic field statistics
(PID.TID 0000.0001) // =======================================================
 cg2d: Sum(rhs),rhsMax =  -1.14075415780235E-14  6.21143979820127E-01
(PID.TID 0000.0001)                    cg2d_init_res =    2.45540795462221E-01
(PID.TID 0000.0001)                       cg2d_iters =    47
(PID.TID 0000.0001)                         cg2d_res =    3.93200536637704E-14
(PID.TID 0000.0001) // =======================================================
(PID.TID 0000.0001) // Begin MONITOR dynamic field statistics
(PID.TID 0000.0001) // =======================================================
(PID.TID 0000.0001) %MON time_tsnumber                =                     5
(PID.TID 0000.0001) %MON time_secondsf                =   1.8000000000000E+04
(PID.TID 0000.0001) %MON time_secondsi                =                 18000
(PID.TID 0000.0001) %MON dynstat_eta_max              =   1.8812326783074E-01
(PID.TID 0000.0001) %MON dynstat_eta_min              =  -2.8341184534020E-01
(PID.TID 0000.0001) %MON dynstat_eta_mean             =  -2.5639939334932E-03
(PID.TID 0000.0001) %MON dynstat_eta_sd               =   1.0696322985799E-01
(PID.TID 0000.0001) %MON dynstat_uvel_max             =   1.7905999478878E-01
(PID.TID 0000.0001) %MON dynstat_uvel_min             =  -1.3243692526659E-01
(PID.TID 0000.0001) %MON dynstat_uvel_mean            =   3.2096205375154E-05
(PID.TID 0000.0001) %MON dynstat_uvel_sd              =   1.7559633275978E-02
(PID.TID 0000.0001) %MON dynstat_vvel_max             =   4.4824282891202E-02
(PID.TID 0000.0001) %MON dynstat_vvel_min             =  -1.0866419352307E-01
(PID.TID 0000.0001) %MON dynstat_vvel_mean            =  -4.8127346007856E-03
(PID.TID 0000.0001) %MON dynstat_vvel_sd              =   1.3099337155187E-02
(PID.TID 0000.0001) %MON dynstat_wvel_max             =   1.1374309560968E-04
(PID.TID 0000.0001) %MON dynstat_wvel_min             =  -1.8464100019430E-04
(PID.TID 0000.0001) %MON dynstat_wvel_mean            =  -7.4843395641997E-08
(PID.TID 0000.0001) %MON dynstat_wvel_sd              =   2.2086840914360E-05
(PID.TID 0000.0001) %MON dynstat_theta_max            =   2.6070067566659E+01
(PID.TID 0000.0001) %MON dynstat_theta_min            =   1.8064422271982E+00
(PID.TID 0000.0001) %MON dynstat_theta_mean           =   1.2444330277800E+01
(PID.TID 0000.0001) %MON dynstat_theta_sd             =   7.6466422146794E+00
(PID.TID 0000.0001) %MON dynstat_salt_max             =   3.7401224064711E+01
(PID.TID 0000.0001) %MON dynstat_salt_min             =   3.4726794346571E+01
(PID.TID 0000.0001) %MON dynstat_salt_mean            =   3.5764947556290E+01
(PID.TID 0000.0001) %MON dynstat_salt_sd              =   7.4197270271036E-01
(PID.TID 0000.0001) %MON advcfl_uvel_max              =   3.7303680106185E-03
(PID.TID 0000.0001) %MON advcfl_vvel_max              =   1.7593091697828E-03
(PID.TID 0000.0001) %MON advcfl_wvel_max              =   8.8164549551922E-03
(PID.TID 0000.0001) %MON advcfl_W_hf_max              =   1.4095940383600E-02
(PID.TID 0000.0001) %MON ke_max                       =   9.9911988819135E-03
(PID.TID 0000.0001) %MON ke_mean                      =   2.2891183171857E-04
(PID.TID 0000.0001) // =======================================================
(PID.TID 0000.0001) // End MONITOR dynamic field statistics
(PID.TID 0000.0001) // =======================================================
 cg2d: Sum(rhs),rhsMax =  -1.17128529097954E-14  6.21676459183296E-01
(PID.TID 0000.0001)                    cg2d_init_res =    2.81016270495506E-01
(PID.TID 0000.0001)                       cg2d_iters =    47
(PID.TID 0000.0001)                         cg2d_res =    4.15711300782744E-14
(PID.TID 0000.0001) // =======================================================
(PID.TID 0000.0001) // Begin MONITOR dynamic field statistics
(PID.TID 0000.0001) // =======================================================
(PID.TID 0000.0001) %MON time_tsnumber                =                     6
(PID.TID 0000.0001) %MON time_secondsf                =   2.1600000000000E+04
(PID.TID 0000.0001) %MON time_secondsi                =                 21600
(PID.TID 0000.0001) %MON dynstat_eta_max              =   1.8435079377067E-01
(PID.TID 0000.0001) %MON dynstat_eta_min              =  -2.7975744250099E-01
(PID.TID 0000.0001) %MON dynstat_eta_mean             =  -3.2359822556250E-03
(PID.TID 0000.0001) %MON dynstat_eta_sd               =   1.0263013499225E-01
(PID.TID 0000.0001) %MON dynstat_uvel_max             =   1.6536914474218E-01
(PID.TID 0000.0001) %MON dynstat_uvel_min             =  -1.4727343686767E-01
(PID.TID 0000.0001) %MON dynstat_uvel_mean            =  -3.9647723106610E-06
(PID.TID 0000.0001) %MON dynstat_uvel_sd              =   2.0332992676817E-02
(PID.TID 0000.0001) %MON dynstat_vvel_max             =   4.7608995311364E-02
(PID.TID 0000.0001) %MON dynstat_vvel_min             =  -1.2111555438941E-01
(PID.TID 0000.0001) %MON dynstat_vvel_mean            =  -5.5413757793835E-03
(PID.TID 0000.0001) %MON dynstat_vvel_sd              =   1.4084901142170E-02
(PID.TID 0000.0001) %MON dynstat_wvel_max             =   1.2005647251190E-04
(PID.TID 0000.0001) %MON dynstat_wvel_min             =  -1.7855357409118E-04
(PID.TID 0000.0001) %MON dynstat_wvel_mean            =  -6.7548090372413E-08
(PID.TID 0000.0001) %MON dynstat_wvel_sd              =   2.4353494524398E-05
(PID.TID 0000.0001) %MON dynstat_theta_max            =   2.6075021815266E+01
(PID.TID 0000.0001) %MON dynstat_theta_min            =   1.8064442715262E+00
(PID.TID 0000.0001) %MON dynstat_theta_mean           =   1.2444580516914E+01
(PID.TID 0000.0001) %MON dynstat_theta_sd             =   7.6469090283698E+00
(PID.TID 0000.0001) %MON dynstat_salt_max             =   3.7401486053236E+01
(PID.TID 0000.0001) %MON dynstat_salt_min             =   3.4726796682486E+01
(PID.TID 0000.0001) %MON dynstat_salt_mean            =   3.5764981770429E+01
(PID.TID 0000.0001) %MON dynstat_salt_sd              =   7.4200042290029E-01
(PID.TID 0000.0001) %MON advcfl_uvel_max              =   3.4451456799005E-03
(PID.TID 0000.0001) %MON advcfl_vvel_max              =   1.9609008131587E-03
(PID.TID 0000.0001) %MON advcfl_wvel_max              =   4.3018589431313E-03
(PID.TID 0000.0001) %MON advcfl_W_hf_max              =   7.5077957291755E-03
(PID.TID 0000.0001) %MON ke_max                       =   1.0809063743482E-02
(PID.TID 0000.0001) %MON ke_mean                      =   2.9256816843584E-04
(PID.TID 0000.0001) // =======================================================
(PID.TID 0000.0001) // End MONITOR dynamic field statistics
(PID.TID 0000.0001) // =======================================================
 cg2d: Sum(rhs),rhsMax =  -1.20597976049908E-14  6.11135932471265E-01
(PID.TID 0000.0001)                    cg2d_init_res =    2.63091072371787E-01
(PID.TID 0000.0001)                       cg2d_iters =    47
(PID.TID 0000.0001)                         cg2d_res =    4.30519676626708E-14
(PID.TID 0000.0001) // =======================================================
(PID.TID 0000.0001) // Begin MONITOR dynamic field statistics
(PID.TID 0000.0001) // =======================================================
(PID.TID 0000.0001) %MON time_tsnumber                =                     7
(PID.TID 0000.0001) %MON time_secondsf                =   2.5200000000000E+04
(PID.TID 0000.0001) %MON time_secondsi                =                 25200
(PID.TID 0000.0001) %MON dynstat_eta_max              =   1.7621675559426E-01
(PID.TID 0000.0001) %MON dynstat_eta_min              =  -2.6854247084791E-01
(PID.TID 0000.0001) %MON dynstat_eta_mean             =  -3.6174366183638E-03
(PID.TID 0000.0001) %MON dynstat_eta_sd               =   9.5924278198153E-02
(PID.TID 0000.0001) %MON dynstat_uvel_max             =   1.4579491089449E-01
(PID.TID 0000.0001) %MON dynstat_uvel_min             =  -1.6053841809039E-01
(PID.TID 0000.0001) %MON dynstat_uvel_mean            =  -5.6987001697867E-04
(PID.TID 0000.0001) %MON dynstat_uvel_sd              =   2.2788450685727E-02
(PID.TID 0000.0001) %MON dynstat_vvel_max             =   4.9447727070371E-02
(PID.TID 0000.0001) %MON dynstat_vvel_min             =  -1.2700698177363E-01
(PID.TID 0000.0001) %MON dynstat_vvel_mean            =  -5.9823374352984E-03
(PID.TID 0000.0001) %MON dynstat_vvel_sd              =   1.4678600374010E-02
(PID.TID 0000.0001) %MON dynstat_wvel_max             =   1.3288966884347E-04
(PID.TID 0000.0001) %MON dynstat_wvel_min             =  -1.5753918398214E-04
(PID.TID 0000.0001) %MON dynstat_wvel_mean            =  -1.3586758298665E-08
(PID.TID 0000.0001) %MON dynstat_wvel_sd              =   2.5681523387314E-05
(PID.TID 0000.0001) %MON dynstat_theta_max            =   2.6081689357751E+01
(PID.TID 0000.0001) %MON dynstat_theta_min            =   1.8064465123701E+00
(PID.TID 0000.0001) %MON dynstat_theta_mean           =   1.2444830643983E+01
(PID.TID 0000.0001) %MON dynstat_theta_sd             =   7.6471828854979E+00
(PID.TID 0000.0001) %MON dynstat_salt_max             =   3.7401749861185E+01
(PID.TID 0000.0001) %MON dynstat_salt_min             =   3.4726797966194E+01
(PID.TID 0000.0001) %MON dynstat_salt_mean            =   3.5765016142482E+01
(PID.TID 0000.0001) %MON dynstat_salt_sd              =   7.4202818267267E-01
(PID.TID 0000.0001) %MON advcfl_uvel_max              =   3.0373544484537E-03
(PID.TID 0000.0001) %MON advcfl_vvel_max              =   2.0562849676269E-03
(PID.TID 0000.0001) %MON advcfl_wvel_max              =   6.3534511778545E-03
(PID.TID 0000.0001) %MON advcfl_W_hf_max              =   8.2818775447918E-03
(PID.TID 0000.0001) %MON ke_max                       =   1.2825165057417E-02
(PID.TID 0000.0001) %MON ke_mean                      =   3.5127988536453E-04
(PID.TID 0000.0001) // =======================================================
(PID.TID 0000.0001) // End MONITOR dynamic field statistics
(PID.TID 0000.0001) // =======================================================
 cg2d: Sum(rhs),rhsMax =  -9.45077349712165E-15  5.94932675704089E-01
(PID.TID 0000.0001)                    cg2d_init_res =    2.04039840901601E-01
(PID.TID 0000.0001)                       cg2d_iters =    47
(PID.TID 0000.0001)                         cg2d_res =    3.87188807300848E-14
(PID.TID 0000.0001) // =======================================================
(PID.TID 0000.0001) // Begin MONITOR dynamic field statistics
(PID.TID 0000.0001) // =======================================================
(PID.TID 0000.0001) %MON time_tsnumber                =                     8
(PID.TID 0000.0001) %MON time_secondsf                =   2.8800000000000E+04
(PID.TID 0000.0001) %MON time_secondsi                =                 28800
(PID.TID 0000.0001) %MON dynstat_eta_max              =   1.6654868274185E-01
(PID.TID 0000.0001) %MON dynstat_eta_min              =  -2.5257947952331E-01
(PID.TID 0000.0001) %MON dynstat_eta_mean             =  -3.6444935303652E-03
(PID.TID 0000.0001) %MON dynstat_eta_sd               =   8.8675663970120E-02
(PID.TID 0000.0001) %MON dynstat_uvel_max             =   1.2081176117857E-01
(PID.TID 0000.0001) %MON dynstat_uvel_min             =  -1.7216924467762E-01
(PID.TID 0000.0001) %MON dynstat_uvel_mean            =  -1.5505098452997E-03
(PID.TID 0000.0001) %MON dynstat_uvel_sd              =   2.4833687789571E-02
(PID.TID 0000.0001) %MON dynstat_vvel_max             =   5.2726637518613E-02
(PID.TID 0000.0001) %MON dynstat_vvel_min             =  -1.2620466053602E-01
(PID.TID 0000.0001) %MON dynstat_vvel_mean            =  -6.1903115905784E-03
(PID.TID 0000.0001) %MON dynstat_vvel_sd              =   1.4993127600130E-02
(PID.TID 0000.0001) %MON dynstat_wvel_max             =   1.3827799343391E-04
(PID.TID 0000.0001) %MON dynstat_wvel_min             =  -1.5784456836648E-04
(PID.TID 0000.0001) %MON dynstat_wvel_mean            =   7.6834180741518E-08
(PID.TID 0000.0001) %MON dynstat_wvel_sd              =   2.5982974674260E-05
(PID.TID 0000.0001) %MON dynstat_theta_max            =   2.6088410869057E+01
(PID.TID 0000.0001) %MON dynstat_theta_min            =   1.8064487561209E+00
(PID.TID 0000.0001) %MON dynstat_theta_mean           =   1.2445089003359E+01
(PID.TID 0000.0001) %MON dynstat_theta_sd             =   7.6474703295239E+00
(PID.TID 0000.0001) %MON dynstat_salt_max             =   3.7402020372367E+01
(PID.TID 0000.0001) %MON dynstat_salt_min             =   3.4726798685854E+01
(PID.TID 0000.0001) %MON dynstat_salt_mean            =   3.5765049760060E+01
(PID.TID 0000.0001) %MON dynstat_salt_sd              =   7.4205511580455E-01
(PID.TID 0000.0001) %MON advcfl_uvel_max              =   2.8858084533831E-03
(PID.TID 0000.0001) %MON advcfl_vvel_max              =   2.0432951218951E-03
(PID.TID 0000.0001) %MON advcfl_wvel_max              =   6.3626756317508E-03
(PID.TID 0000.0001) %MON advcfl_W_hf_max              =   1.0476342173904E-02
(PID.TID 0000.0001) %MON ke_max                       =   1.4783485133624E-02
(PID.TID 0000.0001) %MON ke_mean                      =   4.0228656658260E-04
(PID.TID 0000.0001) // =======================================================
(PID.TID 0000.0001) // End MONITOR dynamic field statistics
(PID.TID 0000.0001) // =======================================================
 cg2d: Sum(rhs),rhsMax =  -8.13932254928318E-15  5.77956523934976E-01
(PID.TID 0000.0001)                    cg2d_init_res =    1.56306336125933E-01
(PID.TID 0000.0001)                       cg2d_iters =    46
(PID.TID 0000.0001)                         cg2d_res =    6.18811012059554E-14
(PID.TID 0000.0001) // =======================================================
(PID.TID 0000.0001) // Begin MONITOR dynamic field statistics
(PID.TID 0000.0001) // =======================================================
(PID.TID 0000.0001) %MON time_tsnumber                =                     9
(PID.TID 0000.0001) %MON time_secondsf                =   3.2400000000000E+04
(PID.TID 0000.0001) %MON time_secondsi                =                 32400
(PID.TID 0000.0001) %MON dynstat_eta_max              =   1.5757371759268E-01
(PID.TID 0000.0001) %MON dynstat_eta_min              =  -2.3627632226421E-01
(PID.TID 0000.0001) %MON dynstat_eta_mean             =  -3.3749097215219E-03
(PID.TID 0000.0001) %MON dynstat_eta_sd               =   8.1844700311887E-02
(PID.TID 0000.0001) %MON dynstat_uvel_max             =   9.4734069143562E-02
(PID.TID 0000.0001) %MON dynstat_uvel_min             =  -1.8182140182450E-01
(PID.TID 0000.0001) %MON dynstat_uvel_mean            =  -2.7873588133940E-03
(PID.TID 0000.0001) %MON dynstat_uvel_sd              =   2.6436471695244E-02
(PID.TID 0000.0001) %MON dynstat_vvel_max             =   6.1597844535505E-02
(PID.TID 0000.0001) %MON dynstat_vvel_min             =  -1.2372315327331E-01
(PID.TID 0000.0001) %MON dynstat_vvel_mean            =  -6.2388430670418E-03
(PID.TID 0000.0001) %MON dynstat_vvel_sd              =   1.5153183310755E-02
(PID.TID 0000.0001) %MON dynstat_wvel_max             =   1.3877310707562E-04
(PID.TID 0000.0001) %MON dynstat_wvel_min             =  -1.6481709269840E-04
(PID.TID 0000.0001) %MON dynstat_wvel_mean            =   1.7675834743156E-07
(PID.TID 0000.0001) %MON dynstat_wvel_sd              =   2.5511620615252E-05
(PID.TID 0000.0001) %MON dynstat_theta_max            =   2.6095218438028E+01
(PID.TID 0000.0001) %MON dynstat_theta_min            =   1.8064508967732E+00
(PID.TID 0000.0001) %MON dynstat_theta_mean           =   1.2445356699267E+01
(PID.TID 0000.0001) %MON dynstat_theta_sd             =   7.6477701574564E+00
(PID.TID 0000.0001) %MON dynstat_salt_max             =   3.7402302818979E+01
(PID.TID 0000.0001) %MON dynstat_salt_min             =   3.4726799229148E+01
(PID.TID 0000.0001) %MON dynstat_salt_mean            =   3.5765081604540E+01
(PID.TID 0000.0001) %MON dynstat_salt_sd              =   7.4207999114913E-01
(PID.TID 0000.0001) %MON advcfl_uvel_max              =   3.0475927298955E-03
(PID.TID 0000.0001) %MON advcfl_vvel_max              =   2.0031187000156E-03
(PID.TID 0000.0001) %MON advcfl_wvel_max              =   5.5790405730536E-03
(PID.TID 0000.0001) %MON advcfl_W_hf_max              =   1.1158081146107E-02
(PID.TID 0000.0001) %MON ke_max                       =   1.6584907504679E-02
(PID.TID 0000.0001) %MON ke_mean                      =   4.4492572602062E-04
(PID.TID 0000.0001) // =======================================================
(PID.TID 0000.0001) // End MONITOR dynamic field statistics
(PID.TID 0000.0001) // =======================================================
 cg2d: Sum(rhs),rhsMax =  -1.44467771079348E-14  5.63257298809467E-01
(PID.TID 0000.0001)                    cg2d_init_res =    1.44645358149061E-01
(PID.TID 0000.0001)                       cg2d_iters =    46
(PID.TID 0000.0001)                         cg2d_res =    8.83095393387033E-14
(PID.TID 0000.0001) // =======================================================
(PID.TID 0000.0001) // Begin MONITOR dynamic field statistics
(PID.TID 0000.0001) // =======================================================
(PID.TID 0000.0001) %MON time_tsnumber                =                    10
(PID.TID 0000.0001) %MON time_secondsf                =   3.6000000000000E+04
(PID.TID 0000.0001) %MON time_secondsi                =                 36000
(PID.TID 0000.0001) %MON dynstat_eta_max              =   1.5079362990323E-01
(PID.TID 0000.0001) %MON dynstat_eta_min              =  -2.2243263107151E-01
(PID.TID 0000.0001) %MON dynstat_eta_mean             =  -2.9459033467725E-03
(PID.TID 0000.0001) %MON dynstat_eta_sd               =   7.6429322697736E-02
(PID.TID 0000.0001) %MON dynstat_uvel_max             =   6.9217365884931E-02
(PID.TID 0000.0001) %MON dynstat_uvel_min             =  -1.9159270164138E-01
(PID.TID 0000.0001) %MON dynstat_uvel_mean            =  -4.1343284023033E-03
(PID.TID 0000.0001) %MON dynstat_uvel_sd              =   2.7630600354080E-02
(PID.TID 0000.0001) %MON dynstat_vvel_max             =   6.8874089155789E-02
(PID.TID 0000.0001) %MON dynstat_vvel_min             =  -1.2587604960981E-01
(PID.TID 0000.0001) %MON dynstat_vvel_mean            =  -6.1719559970553E-03
(PID.TID 0000.0001) %MON dynstat_vvel_sd              =   1.5281236601099E-02
(PID.TID 0000.0001) %MON dynstat_wvel_max             =   1.4562806528146E-04
(PID.TID 0000.0001) %MON dynstat_wvel_min             =  -1.6669426958667E-04
(PID.TID 0000.0001) %MON dynstat_wvel_mean            =   2.5760037509636E-07
(PID.TID 0000.0001) %MON dynstat_wvel_sd              =   2.4640851983488E-05
(PID.TID 0000.0001) %MON dynstat_theta_max            =   2.6102081646111E+01
(PID.TID 0000.0001) %MON dynstat_theta_min            =   1.8064529061829E+00
(PID.TID 0000.0001) %MON dynstat_theta_mean           =   1.2445628702862E+01
(PID.TID 0000.0001) %MON dynstat_theta_sd             =   7.6480759020235E+00
(PID.TID 0000.0001) %MON dynstat_salt_max             =   3.7402601296968E+01
(PID.TID 0000.0001) %MON dynstat_salt_min             =   3.4726799930613E+01
(PID.TID 0000.0001) %MON dynstat_salt_mean            =   3.5765110750529E+01
(PID.TID 0000.0001) %MON dynstat_salt_sd              =   7.4210222267566E-01
(PID.TID 0000.0001) %MON advcfl_uvel_max              =   3.2436825986787E-03
(PID.TID 0000.0001) %MON advcfl_vvel_max              =   2.0379748025053E-03
(PID.TID 0000.0001) %MON advcfl_wvel_max              =   5.4010865710930E-03
(PID.TID 0000.0001) %MON advcfl_W_hf_max              =   1.0802173142186E-02
(PID.TID 0000.0001) %MON ke_max                       =   1.8088565218972E-02
(PID.TID 0000.0001) %MON ke_mean                      =   4.8023547059139E-04
(PID.TID 0000.0001) // =======================================================
(PID.TID 0000.0001) // End MONITOR dynamic field statistics
(PID.TID 0000.0001) // =======================================================
 cg2d: Sum(rhs),rhsMax =  -6.49827414100912E-15  5.52256121982500E-01
(PID.TID 0000.0001)                    cg2d_init_res =    1.38278671964949E-01
(PID.TID 0000.0001)                       cg2d_iters =    45
(PID.TID 0000.0001)                         cg2d_res =    7.06999488172455E-14
(PID.TID 0000.0001) // =======================================================
(PID.TID 0000.0001) // Begin MONITOR dynamic field statistics
(PID.TID 0000.0001) // =======================================================
(PID.TID 0000.0001) %MON time_tsnumber                =                    11
(PID.TID 0000.0001) %MON time_secondsf                =   3.9600000000000E+04
(PID.TID 0000.0001) %MON time_secondsi                =                 39600
(PID.TID 0000.0001) %MON dynstat_eta_max              =   1.4688217907808E-01
(PID.TID 0000.0001) %MON dynstat_eta_min              =  -2.1251800210943E-01
(PID.TID 0000.0001) %MON dynstat_eta_mean             =  -2.5123638613527E-03
(PID.TID 0000.0001) %MON dynstat_eta_sd               =   7.3230221323158E-02
(PID.TID 0000.0001) %MON dynstat_uvel_max             =   4.8753841001882E-02
(PID.TID 0000.0001) %MON dynstat_uvel_min             =  -2.0225756407783E-01
(PID.TID 0000.0001) %MON dynstat_uvel_mean            =  -5.4721143564457E-03
(PID.TID 0000.0001) %MON dynstat_uvel_sd              =   2.8421139486057E-02
(PID.TID 0000.0001) %MON dynstat_vvel_max             =   7.3980767905857E-02
(PID.TID 0000.0001) %MON dynstat_vvel_min             =  -1.3194114312982E-01
(PID.TID 0000.0001) %MON dynstat_vvel_mean            =  -5.9877253880162E-03
(PID.TID 0000.0001) %MON dynstat_vvel_sd              =   1.5454119301366E-02
(PID.TID 0000.0001) %MON dynstat_wvel_max             =   1.4994091536943E-04
(PID.TID 0000.0001) %MON dynstat_wvel_min             =  -1.6350851214694E-04
(PID.TID 0000.0001) %MON dynstat_wvel_mean            =   3.0046080452673E-07
(PID.TID 0000.0001) %MON dynstat_wvel_sd              =   2.3705816823621E-05
(PID.TID 0000.0001) %MON dynstat_theta_max            =   2.6108935193583E+01
(PID.TID 0000.0001) %MON dynstat_theta_min            =   1.8064548070523E+00
(PID.TID 0000.0001) %MON dynstat_theta_mean           =   1.2445894376381E+01
(PID.TID 0000.0001) %MON dynstat_theta_sd             =   7.6483747029869E+00
(PID.TID 0000.0001) %MON dynstat_salt_max             =   3.7402918028107E+01
(PID.TID 0000.0001) %MON dynstat_salt_min             =   3.4726801122118E+01
(PID.TID 0000.0001) %MON dynstat_salt_mean            =   3.5765137828745E+01
(PID.TID 0000.0001) %MON dynstat_salt_sd              =   7.4212258077839E-01
(PID.TID 0000.0001) %MON advcfl_uvel_max              =   3.4242397305844E-03
(PID.TID 0000.0001) %MON advcfl_vvel_max              =   2.1361706690496E-03
(PID.TID 0000.0001) %MON advcfl_wvel_max              =   4.9018805693319E-03
(PID.TID 0000.0001) %MON advcfl_W_hf_max              =   9.8037611386639E-03
(PID.TID 0000.0001) %MON ke_max                       =   1.9369972422896E-02
(PID.TID 0000.0001) %MON ke_mean                      =   5.0786699782086E-04
(PID.TID 0000.0001) // =======================================================
(PID.TID 0000.0001) // End MONITOR dynamic field statistics
(PID.TID 0000.0001) // =======================================================
 cg2d: Sum(rhs),rhsMax =  -1.46323925198644E-14  5.45297992539226E-01
(PID.TID 0000.0001)                    cg2d_init_res =    1.16565799304463E-01
(PID.TID 0000.0001)                       cg2d_iters =    45
(PID.TID 0000.0001)                         cg2d_res =    6.83037508107990E-14
(PID.TID 0000.0001) // =======================================================
(PID.TID 0000.0001) // Begin MONITOR dynamic field statistics
(PID.TID 0000.0001) // =======================================================
(PID.TID 0000.0001) %MON time_tsnumber                =                    12
(PID.TID 0000.0001) %MON time_secondsf                =   4.3200000000000E+04
(PID.TID 0000.0001) %MON time_secondsi                =                 43200
(PID.TID 0000.0001) %MON dynstat_eta_max              =   1.4574302957731E-01
(PID.TID 0000.0001) %MON dynstat_eta_min              =  -2.0704057715279E-01
(PID.TID 0000.0001) %MON dynstat_eta_mean             =  -2.1937828018637E-03
(PID.TID 0000.0001) %MON dynstat_eta_sd               =   7.2289395546754E-02
(PID.TID 0000.0001) %MON dynstat_uvel_max             =   4.6111545902692E-02
(PID.TID 0000.0001) %MON dynstat_uvel_min             =  -2.0998524478204E-01
(PID.TID 0000.0001) %MON dynstat_uvel_mean            =  -6.7120546978984E-03
(PID.TID 0000.0001) %MON dynstat_uvel_sd              =   2.8840034419014E-02
(PID.TID 0000.0001) %MON dynstat_vvel_max             =   7.6773150619648E-02
(PID.TID 0000.0001) %MON dynstat_vvel_min             =  -1.3654757173150E-01
(PID.TID 0000.0001) %MON dynstat_vvel_mean            =  -5.6463635730916E-03
(PID.TID 0000.0001) %MON dynstat_vvel_sd              =   1.5702845656405E-02
(PID.TID 0000.0001) %MON dynstat_wvel_max             =   1.5170809287206E-04
(PID.TID 0000.0001) %MON dynstat_wvel_min             =  -1.5549558508851E-04
(PID.TID 0000.0001) %MON dynstat_wvel_mean            =   3.0057350402496E-07
(PID.TID 0000.0001) %MON dynstat_wvel_sd              =   2.2954381125201E-05
(PID.TID 0000.0001) %MON dynstat_theta_max            =   2.6115712324396E+01
(PID.TID 0000.0001) %MON dynstat_theta_min            =   1.8064566492903E+00
(PID.TID 0000.0001) %MON dynstat_theta_mean           =   1.2446144319824E+01
(PID.TID 0000.0001) %MON dynstat_theta_sd             =   7.6486558742690E+00
(PID.TID 0000.0001) %MON dynstat_salt_max             =   3.7403252847383E+01
(PID.TID 0000.0001) %MON dynstat_salt_min             =   3.4726803102633E+01
(PID.TID 0000.0001) %MON dynstat_salt_mean            =   3.5765163239250E+01
(PID.TID 0000.0001) %MON dynstat_salt_sd              =   7.4214170239495E-01
(PID.TID 0000.0001) %MON advcfl_uvel_max              =   3.5550700973659E-03
(PID.TID 0000.0001) %MON advcfl_vvel_max              =   2.2107502689725E-03
(PID.TID 0000.0001) %MON advcfl_wvel_max              =   4.4913449954352E-03
(PID.TID 0000.0001) %MON advcfl_W_hf_max              =   8.4771300184911E-03
(PID.TID 0000.0001) %MON ke_max                       =   2.1296994387134E-02
(PID.TID 0000.0001) %MON ke_mean                      =   5.2751582336815E-04
(PID.TID 0000.0001) // =======================================================
(PID.TID 0000.0001) // End MONITOR dynamic field statistics
(PID.TID 0000.0001) // =======================================================
 S/R EXTERNAL_FIELDS_LOAD: Reading new data  43200. 12
(PID.TID 0000.0001)  MDSREADFIELD: opening global file: kf_fu
(PID.TID 0000.0001)  MDSREADFIELD: opening global file: kf_fu
(PID.TID 0000.0001)  MDSREADFIELD: opening global file: kf_fv
(PID.TID 0000.0001)  MDSREADFIELD: opening global file: kf_fv
(PID.TID 0000.0001)  MDSREADFIELD: opening global file: kf_qnet
(PID.TID 0000.0001)  MDSREADFIELD: opening global file: kf_qnet
(PID.TID 0000.0001)  MDSREADFIELD: opening global file: kf_empmr
(PID.TID 0000.0001)  MDSREADFIELD: opening global file: kf_empmr
(PID.TID 0000.0001)  MDSREADFIELD: opening global file: kf_sst
(PID.TID 0000.0001)  MDSREADFIELD: opening global file: kf_sst
(PID.TID 0000.0001)  MDSREADFIELD: opening global file: kf_sss
(PID.TID 0000.0001)  MDSREADFIELD: opening global file: kf_sss
(PID.TID 0000.0001)  MDSREADFIELD: opening global file: kf_sw
(PID.TID 0000.0001)  MDSREADFIELD: opening global file: kf_sw
 cg2d: Sum(rhs),rhsMax =  -1.11854969730985E-14  5.42106069023227E-01
(PID.TID 0000.0001)                    cg2d_init_res =    9.01764295512225E-02
(PID.TID 0000.0001)                       cg2d_iters =    45
(PID.TID 0000.0001)                         cg2d_res =    8.96962992825708E-14
(PID.TID 0000.0001) // =======================================================
(PID.TID 0000.0001) // Begin MONITOR dynamic field statistics
(PID.TID 0000.0001) // =======================================================
(PID.TID 0000.0001) %MON time_tsnumber                =                    13
(PID.TID 0000.0001) %MON time_secondsf                =   4.6800000000000E+04
(PID.TID 0000.0001) %MON time_secondsi                =                 46800
(PID.TID 0000.0001) %MON dynstat_eta_max              =   1.4671820957908E-01
(PID.TID 0000.0001) %MON dynstat_eta_min              =  -2.0578747309553E-01
(PID.TID 0000.0001) %MON dynstat_eta_mean             =  -2.0461932491333E-03
(PID.TID 0000.0001) %MON dynstat_eta_sd               =   7.2982238583391E-02
(PID.TID 0000.0001) %MON dynstat_uvel_max             =   4.5572793712359E-02
(PID.TID 0000.0001) %MON dynstat_uvel_min             =  -2.1344111484869E-01
(PID.TID 0000.0001) %MON dynstat_uvel_mean            =  -7.7833480951129E-03
(PID.TID 0000.0001) %MON dynstat_uvel_sd              =   2.8913522885648E-02
(PID.TID 0000.0001) %MON dynstat_vvel_max             =   7.7412999375343E-02
(PID.TID 0000.0001) %MON dynstat_vvel_min             =  -1.3955297610811E-01
(PID.TID 0000.0001) %MON dynstat_vvel_mean            =  -5.0982443045250E-03
(PID.TID 0000.0001) %MON dynstat_vvel_sd              =   1.6012486473193E-02
(PID.TID 0000.0001) %MON dynstat_wvel_max             =   1.5090555823814E-04
(PID.TID 0000.0001) %MON dynstat_wvel_min             =  -1.5152352532092E-04
(PID.TID 0000.0001) %MON dynstat_wvel_mean            =   2.6551266982001E-07
(PID.TID 0000.0001) %MON dynstat_wvel_sd              =   2.2509471943364E-05
(PID.TID 0000.0001) %MON dynstat_theta_max            =   2.6122368867781E+01
(PID.TID 0000.0001) %MON dynstat_theta_min            =   1.8064584952312E+00
(PID.TID 0000.0001) %MON dynstat_theta_mean           =   1.2446372609290E+01
(PID.TID 0000.0001) %MON dynstat_theta_sd             =   7.6489126298511E+00
(PID.TID 0000.0001) %MON dynstat_salt_max             =   3.7403603077132E+01
(PID.TID 0000.0001) %MON dynstat_salt_min             =   3.4726806065798E+01
(PID.TID 0000.0001) %MON dynstat_salt_mean            =   3.5765187372654E+01
(PID.TID 0000.0001) %MON dynstat_salt_sd              =   7.4216029387503E-01
(PID.TID 0000.0001) %MON advcfl_uvel_max              =   3.6135783051548E-03
(PID.TID 0000.0001) %MON advcfl_vvel_max              =   2.2594087580961E-03
(PID.TID 0000.0001) %MON advcfl_wvel_max              =   4.3471065598145E-03
(PID.TID 0000.0001) %MON advcfl_W_hf_max              =   7.0433844433530E-03
(PID.TID 0000.0001) %MON ke_max                       =   2.2862494778674E-02
(PID.TID 0000.0001) %MON ke_mean                      =   5.3835931387399E-04
(PID.TID 0000.0001) // =======================================================
(PID.TID 0000.0001) // End MONITOR dynamic field statistics
(PID.TID 0000.0001) // =======================================================
 cg2d: Sum(rhs),rhsMax =  -1.77488232444567E-14  5.41934949577850E-01
(PID.TID 0000.0001)                    cg2d_init_res =    7.96146115365578E-02
(PID.TID 0000.0001)                       cg2d_iters =    45
(PID.TID 0000.0001)                         cg2d_res =    9.05790668965708E-14
(PID.TID 0000.0001) // =======================================================
(PID.TID 0000.0001) // Begin MONITOR dynamic field statistics
(PID.TID 0000.0001) // =======================================================
(PID.TID 0000.0001) %MON time_tsnumber                =                    14
(PID.TID 0000.0001) %MON time_secondsf                =   5.0400000000000E+04
(PID.TID 0000.0001) %MON time_secondsi                =                 50400
(PID.TID 0000.0001) %MON dynstat_eta_max              =   1.4888181384453E-01
(PID.TID 0000.0001) %MON dynstat_eta_min              =  -2.0790915650160E-01
(PID.TID 0000.0001) %MON dynstat_eta_mean             =  -2.0621767304340E-03
(PID.TID 0000.0001) %MON dynstat_eta_sd               =   7.4563657361685E-02
(PID.TID 0000.0001) %MON dynstat_uvel_max             =   4.3470943442491E-02
(PID.TID 0000.0001) %MON dynstat_uvel_min             =  -2.1477252807659E-01
(PID.TID 0000.0001) %MON dynstat_uvel_mean            =  -8.6423550495800E-03
(PID.TID 0000.0001) %MON dynstat_uvel_sd              =   2.8716594301516E-02
(PID.TID 0000.0001) %MON dynstat_vvel_max             =   8.1050483013875E-02
(PID.TID 0000.0001) %MON dynstat_vvel_min             =  -1.4074214637959E-01
(PID.TID 0000.0001) %MON dynstat_vvel_mean            =  -4.3261835580080E-03
(PID.TID 0000.0001) %MON dynstat_vvel_sd              =   1.6341213169957E-02
(PID.TID 0000.0001) %MON dynstat_wvel_max             =   1.4750788716451E-04
(PID.TID 0000.0001) %MON dynstat_wvel_min             =  -1.5893253677182E-04
(PID.TID 0000.0001) %MON dynstat_wvel_mean            =   2.0975218308545E-07
(PID.TID 0000.0001) %MON dynstat_wvel_sd              =   2.2324577206697E-05
(PID.TID 0000.0001) %MON dynstat_theta_max            =   2.6128822199677E+01
(PID.TID 0000.0001) %MON dynstat_theta_min            =   1.8064604100804E+00
(PID.TID 0000.0001) %MON dynstat_theta_mean           =   1.2446579304895E+01
(PID.TID 0000.0001) %MON dynstat_theta_sd             =   7.6491460057523E+00
(PID.TID 0000.0001) %MON dynstat_salt_max             =   3.7403965470408E+01
(PID.TID 0000.0001) %MON dynstat_salt_min             =   3.4726810055940E+01
(PID.TID 0000.0001) %MON dynstat_salt_mean            =   3.5765210600686E+01
(PID.TID 0000.0001) %MON dynstat_salt_sd              =   7.4217886074403E-01
(PID.TID 0000.0001) %MON advcfl_uvel_max              =   3.6336967554933E-03
(PID.TID 0000.0001) %MON advcfl_vvel_max              =   2.2786618174086E-03
(PID.TID 0000.0001) %MON advcfl_wvel_max              =   4.1581354896751E-03
(PID.TID 0000.0001) %MON advcfl_W_hf_max              =   6.0458178572455E-03
(PID.TID 0000.0001) %MON ke_max                       =   2.3986485090571E-02
(PID.TID 0000.0001) %MON ke_mean                      =   5.4113303056672E-04
(PID.TID 0000.0001) // =======================================================
(PID.TID 0000.0001) // End MONITOR dynamic field statistics
(PID.TID 0000.0001) // =======================================================
 cg2d: Sum(rhs),rhsMax =  -1.18152015948780E-14  5.43849097481919E-01
(PID.TID 0000.0001)                    cg2d_init_res =    8.29647550197417E-02
(PID.TID 0000.0001)                       cg2d_iters =    45
(PID.TID 0000.0001)                         cg2d_res =    6.64257341720830E-14
(PID.TID 0000.0001) // =======================================================
(PID.TID 0000.0001) // Begin MONITOR dynamic field statistics
(PID.TID 0000.0001) // =======================================================
(PID.TID 0000.0001) %MON time_tsnumber                =                    15
(PID.TID 0000.0001) %MON time_secondsf                =   5.4000000000000E+04
(PID.TID 0000.0001) %MON time_secondsi                =                 54000
(PID.TID 0000.0001) %MON dynstat_eta_max              =   1.5127704906240E-01
(PID.TID 0000.0001) %MON dynstat_eta_min              =  -2.1224719848129E-01
(PID.TID 0000.0001) %MON dynstat_eta_mean             =  -2.1895832858265E-03
(PID.TID 0000.0001) %MON dynstat_eta_sd               =   7.6458261069515E-02
(PID.TID 0000.0001) %MON dynstat_uvel_max             =   3.9991052075594E-02
(PID.TID 0000.0001) %MON dynstat_uvel_min             =  -2.1879746799090E-01
(PID.TID 0000.0001) %MON dynstat_uvel_mean            =  -9.2395253611391E-03
(PID.TID 0000.0001) %MON dynstat_uvel_sd              =   2.8304238983680E-02
(PID.TID 0000.0001) %MON dynstat_vvel_max             =   8.3990710001635E-02
(PID.TID 0000.0001) %MON dynstat_vvel_min             =  -1.3989253092990E-01
(PID.TID 0000.0001) %MON dynstat_vvel_mean            =  -3.3265326988514E-03
(PID.TID 0000.0001) %MON dynstat_vvel_sd              =   1.6635637298375E-02
(PID.TID 0000.0001) %MON dynstat_wvel_max             =   1.4155548378257E-04
(PID.TID 0000.0001) %MON dynstat_wvel_min             =  -1.6486549077428E-04
(PID.TID 0000.0001) %MON dynstat_wvel_mean            =   1.4858195467706E-07
(PID.TID 0000.0001) %MON dynstat_wvel_sd              =   2.2205344522787E-05
(PID.TID 0000.0001) %MON dynstat_theta_max            =   2.6135111120141E+01
(PID.TID 0000.0001) %MON dynstat_theta_min            =   1.8064624590905E+00
(PID.TID 0000.0001) %MON dynstat_theta_mean           =   1.2446770013016E+01
(PID.TID 0000.0001) %MON dynstat_theta_sd             =   7.6493629996095E+00
(PID.TID 0000.0001) %MON dynstat_salt_max             =   3.7404332419242E+01
(PID.TID 0000.0001) %MON dynstat_salt_min             =   3.4726814940045E+01
(PID.TID 0000.0001) %MON dynstat_salt_mean            =   3.5765232926591E+01
(PID.TID 0000.0001) %MON dynstat_salt_sd              =   7.4219743761061E-01
(PID.TID 0000.0001) %MON advcfl_uvel_max              =   3.6819023156332E-03
(PID.TID 0000.0001) %MON advcfl_vvel_max              =   2.2649062627686E-03
(PID.TID 0000.0001) %MON advcfl_wvel_max              =   3.9789536162211E-03
(PID.TID 0000.0001) %MON advcfl_W_hf_max              =   6.6157360342396E-03
(PID.TID 0000.0001) %MON ke_max                       =   2.4839864268629E-02
(PID.TID 0000.0001) %MON ke_mean                      =   5.3616136863741E-04
(PID.TID 0000.0001) // =======================================================
(PID.TID 0000.0001) // End MONITOR dynamic field statistics
(PID.TID 0000.0001) // =======================================================
 cg2d: Sum(rhs),rhsMax =  -5.90846815917700E-15  5.46920338976349E-01
(PID.TID 0000.0001)                    cg2d_init_res =    8.43607133064003E-02
(PID.TID 0000.0001)                       cg2d_iters =    44
(PID.TID 0000.0001)                         cg2d_res =    7.59953881864237E-14
(PID.TID 0000.0001) // =======================================================
(PID.TID 0000.0001) // Begin MONITOR dynamic field statistics
(PID.TID 0000.0001) // =======================================================
(PID.TID 0000.0001) %MON time_tsnumber                =                    16
(PID.TID 0000.0001) %MON time_secondsf                =   5.7600000000000E+04
(PID.TID 0000.0001) %MON time_secondsi                =                 57600
(PID.TID 0000.0001) %MON dynstat_eta_max              =   1.5316399909133E-01
(PID.TID 0000.0001) %MON dynstat_eta_min              =  -2.1737722941049E-01
(PID.TID 0000.0001) %MON dynstat_eta_mean             =  -2.3593094493765E-03
(PID.TID 0000.0001) %MON dynstat_eta_sd               =   7.8234966160211E-02
(PID.TID 0000.0001) %MON dynstat_uvel_max             =   3.5666603230780E-02
(PID.TID 0000.0001) %MON dynstat_uvel_min             =  -2.2089709678749E-01
(PID.TID 0000.0001) %MON dynstat_uvel_mean            =  -9.5461087687181E-03
(PID.TID 0000.0001) %MON dynstat_uvel_sd              =   2.7744689799522E-02
(PID.TID 0000.0001) %MON dynstat_vvel_max             =   8.8869554495360E-02
(PID.TID 0000.0001) %MON dynstat_vvel_min             =  -1.3685823005320E-01
(PID.TID 0000.0001) %MON dynstat_vvel_mean            =  -2.1429808449492E-03
(PID.TID 0000.0001) %MON dynstat_vvel_sd              =   1.6872981813236E-02
(PID.TID 0000.0001) %MON dynstat_wvel_max             =   1.3315465092629E-04
(PID.TID 0000.0001) %MON dynstat_wvel_min             =  -1.6931863337598E-04
(PID.TID 0000.0001) %MON dynstat_wvel_mean            =   9.3569546672450E-08
(PID.TID 0000.0001) %MON dynstat_wvel_sd              =   2.1915361272420E-05
(PID.TID 0000.0001) %MON dynstat_theta_max            =   2.6141264389345E+01
(PID.TID 0000.0001) %MON dynstat_theta_min            =   1.8064646926731E+00
(PID.TID 0000.0001) %MON dynstat_theta_mean           =   1.2446952358893E+01
(PID.TID 0000.0001) %MON dynstat_theta_sd             =   7.6495729849924E+00
(PID.TID 0000.0001) %MON dynstat_salt_max             =   3.7404701907393E+01
(PID.TID 0000.0001) %MON dynstat_salt_min             =   3.4726820545600E+01
(PID.TID 0000.0001) %MON dynstat_salt_mean            =   3.5765254250992E+01
(PID.TID 0000.0001) %MON dynstat_salt_sd              =   7.4221585484836E-01
(PID.TID 0000.0001) %MON advcfl_uvel_max              =   3.7025585517945E-03
(PID.TID 0000.0001) %MON advcfl_vvel_max              =   2.2157799297680E-03
(PID.TID 0000.0001) %MON advcfl_wvel_max              =   4.1813023822427E-03
(PID.TID 0000.0001) %MON advcfl_W_hf_max              =   7.1290950904697E-03
(PID.TID 0000.0001) %MON ke_max                       =   2.5433264183723E-02
(PID.TID 0000.0001) %MON ke_mean                      =   5.2506558266772E-04
(PID.TID 0000.0001) // =======================================================
(PID.TID 0000.0001) // End MONITOR dynamic field statistics
(PID.TID 0000.0001) // =======================================================
 cg2d: Sum(rhs),rhsMax =  -8.82627304576999E-15  5.49958373135870E-01
(PID.TID 0000.0001)                    cg2d_init_res =    7.83790133804644E-02
(PID.TID 0000.0001)                       cg2d_iters =    44
(PID.TID 0000.0001)                         cg2d_res =    6.39528223990612E-14
(PID.TID 0000.0001) // =======================================================
(PID.TID 0000.0001) // Begin MONITOR dynamic field statistics
(PID.TID 0000.0001) // =======================================================
(PID.TID 0000.0001) %MON time_tsnumber                =                    17
(PID.TID 0000.0001) %MON time_secondsf                =   6.1200000000000E+04
(PID.TID 0000.0001) %MON time_secondsi                =                 61200
(PID.TID 0000.0001) %MON dynstat_eta_max              =   1.5413045081679E-01
(PID.TID 0000.0001) %MON dynstat_eta_min              =  -2.2194154365706E-01
(PID.TID 0000.0001) %MON dynstat_eta_mean             =  -2.5099260771153E-03
(PID.TID 0000.0001) %MON dynstat_eta_sd               =   7.9558598026168E-02
(PID.TID 0000.0001) %MON dynstat_uvel_max             =   3.6327904635409E-02
(PID.TID 0000.0001) %MON dynstat_uvel_min             =  -2.2112781921612E-01
(PID.TID 0000.0001) %MON dynstat_uvel_mean            =  -9.5521976117996E-03
(PID.TID 0000.0001) %MON dynstat_uvel_sd              =   2.7083532196625E-02
(PID.TID 0000.0001) %MON dynstat_vvel_max             =   1.0002663098774E-01
(PID.TID 0000.0001) %MON dynstat_vvel_min             =  -1.3172651644814E-01
(PID.TID 0000.0001) %MON dynstat_vvel_mean            =  -8.5313876666908E-04
(PID.TID 0000.0001) %MON dynstat_vvel_sd              =   1.7056693146555E-02
(PID.TID 0000.0001) %MON dynstat_wvel_max             =   1.2252270273472E-04
(PID.TID 0000.0001) %MON dynstat_wvel_min             =  -1.7225652084771E-04
(PID.TID 0000.0001) %MON dynstat_wvel_mean            =   5.0656011263379E-08
(PID.TID 0000.0001) %MON dynstat_wvel_sd              =   2.1295446558414E-05
(PID.TID 0000.0001) %MON dynstat_theta_max            =   2.6147311835925E+01
(PID.TID 0000.0001) %MON dynstat_theta_min            =   1.8064671445488E+00
(PID.TID 0000.0001) %MON dynstat_theta_mean           =   1.2447132776650E+01
(PID.TID 0000.0001) %MON dynstat_theta_sd             =   7.6497831948188E+00
(PID.TID 0000.0001) %MON dynstat_salt_max             =   3.7405072204612E+01
(PID.TID 0000.0001) %MON dynstat_salt_min             =   3.4726826713837E+01
(PID.TID 0000.0001) %MON dynstat_salt_mean            =   3.5765274521179E+01
(PID.TID 0000.0001) %MON dynstat_salt_sd              =   7.4223392841423E-01
(PID.TID 0000.0001) %MON advcfl_uvel_max              =   3.7064257972841E-03
(PID.TID 0000.0001) %MON advcfl_vvel_max              =   2.1326957922119E-03
(PID.TID 0000.0001) %MON advcfl_wvel_max              =   4.5709866296617E-03
(PID.TID 0000.0001) %MON advcfl_W_hf_max              =   7.5434940773937E-03
(PID.TID 0000.0001) %MON ke_max                       =   2.5765682456857E-02
(PID.TID 0000.0001) %MON ke_mean                      =   5.0953155898282E-04
(PID.TID 0000.0001) // =======================================================
(PID.TID 0000.0001) // End MONITOR dynamic field statistics
(PID.TID 0000.0001) // =======================================================
 cg2d: Sum(rhs),rhsMax =  -1.22749033160119E-14  5.51916207946058E-01
(PID.TID 0000.0001)                    cg2d_init_res =    6.92741328011494E-02
(PID.TID 0000.0001)                       cg2d_iters =    44
(PID.TID 0000.0001)                         cg2d_res =    8.64614682318037E-14
(PID.TID 0000.0001) // =======================================================
(PID.TID 0000.0001) // Begin MONITOR dynamic field statistics
(PID.TID 0000.0001) // =======================================================
(PID.TID 0000.0001) %MON time_tsnumber                =                    18
(PID.TID 0000.0001) %MON time_secondsf                =   6.4800000000000E+04
(PID.TID 0000.0001) %MON time_secondsi                =                 64800
(PID.TID 0000.0001) %MON dynstat_eta_max              =   1.5411149380419E-01
(PID.TID 0000.0001) %MON dynstat_eta_min              =  -2.2500255761062E-01
(PID.TID 0000.0001) %MON dynstat_eta_mean             =  -2.6028378926382E-03
(PID.TID 0000.0001) %MON dynstat_eta_sd               =   8.0234745824643E-02
(PID.TID 0000.0001) %MON dynstat_uvel_max             =   3.5221301366208E-02
(PID.TID 0000.0001) %MON dynstat_uvel_min             =  -2.1957787941115E-01
(PID.TID 0000.0001) %MON dynstat_uvel_mean            =  -9.2691189815027E-03
(PID.TID 0000.0001) %MON dynstat_uvel_sd              =   2.6360986338316E-02
(PID.TID 0000.0001) %MON dynstat_vvel_max             =   1.1134983502922E-01
(PID.TID 0000.0001) %MON dynstat_vvel_min             =  -1.2617315541703E-01
(PID.TID 0000.0001) %MON dynstat_vvel_mean            =   4.4599601775515E-04
(PID.TID 0000.0001) %MON dynstat_vvel_sd              =   1.7219403604246E-02
(PID.TID 0000.0001) %MON dynstat_wvel_max             =   1.0997000897810E-04
(PID.TID 0000.0001) %MON dynstat_wvel_min             =  -1.7361456544458E-04
(PID.TID 0000.0001) %MON dynstat_wvel_mean            =   2.0612916637397E-08
(PID.TID 0000.0001) %MON dynstat_wvel_sd              =   2.0328369607157E-05
(PID.TID 0000.0001) %MON dynstat_theta_max            =   2.6153275958677E+01
(PID.TID 0000.0001) %MON dynstat_theta_min            =   1.8064698323284E+00
(PID.TID 0000.0001) %MON dynstat_theta_mean           =   1.2447315625957E+01
(PID.TID 0000.0001) %MON dynstat_theta_sd             =   7.6499982237916E+00
(PID.TID 0000.0001) %MON dynstat_salt_max             =   3.7405441647591E+01
(PID.TID 0000.0001) %MON dynstat_salt_min             =   3.4726833344173E+01
(PID.TID 0000.0001) %MON dynstat_salt_mean            =   3.5765293830551E+01
(PID.TID 0000.0001) %MON dynstat_salt_sd              =   7.4225159899686E-01
(PID.TID 0000.0001) %MON advcfl_uvel_max              =   3.6804465383300E-03
(PID.TID 0000.0001) %MON advcfl_vvel_max              =   2.0427850436168E-03
(PID.TID 0000.0001) %MON advcfl_wvel_max              =   4.8582327877789E-03
(PID.TID 0000.0001) %MON advcfl_W_hf_max              =   7.8961939353362E-03
(PID.TID 0000.0001) %MON ke_max                       =   2.5831671439895E-02
(PID.TID 0000.0001) %MON ke_mean                      =   4.9161139243312E-04
(PID.TID 0000.0001) // =======================================================
(PID.TID 0000.0001) // End MONITOR dynamic field statistics
(PID.TID 0000.0001) // =======================================================
 cg2d: Sum(rhs),rhsMax =  -7.39339145461315E-15  5.52147648296767E-01
(PID.TID 0000.0001)                    cg2d_init_res =    6.30180151678658E-02
(PID.TID 0000.0001)                       cg2d_iters =    44
(PID.TID 0000.0001)                         cg2d_res =    9.39080302190481E-14
(PID.TID 0000.0001) // =======================================================
(PID.TID 0000.0001) // Begin MONITOR dynamic field statistics
(PID.TID 0000.0001) // =======================================================
(PID.TID 0000.0001) %MON time_tsnumber                =                    19
(PID.TID 0000.0001) %MON time_secondsf                =   6.8400000000000E+04
(PID.TID 0000.0001) %MON time_secondsi                =                 68400
(PID.TID 0000.0001) %MON dynstat_eta_max              =   1.5332232338094E-01
(PID.TID 0000.0001) %MON dynstat_eta_min              =  -2.2623576438074E-01
(PID.TID 0000.0001) %MON dynstat_eta_mean             =  -2.6264458260275E-03
(PID.TID 0000.0001) %MON dynstat_eta_sd               =   8.0269823239537E-02
(PID.TID 0000.0001) %MON dynstat_uvel_max             =   3.2498447673900E-02
(PID.TID 0000.0001) %MON dynstat_uvel_min             =  -2.1634826527299E-01
(PID.TID 0000.0001) %MON dynstat_uvel_mean            =  -8.7287553834321E-03
(PID.TID 0000.0001) %MON dynstat_uvel_sd              =   2.5612190944909E-02
(PID.TID 0000.0001) %MON dynstat_vvel_max             =   1.2117385216961E-01
(PID.TID 0000.0001) %MON dynstat_vvel_min             =  -1.2033863093668E-01
(PID.TID 0000.0001) %MON dynstat_vvel_mean            =   1.6551708538217E-03
(PID.TID 0000.0001) %MON dynstat_vvel_sd              =   1.7396212561241E-02
(PID.TID 0000.0001) %MON dynstat_wvel_max             =   9.5869883838514E-05
(PID.TID 0000.0001) %MON dynstat_wvel_min             =  -1.7332113529910E-04
(PID.TID 0000.0001) %MON dynstat_wvel_mean            =   9.2778539610208E-10
(PID.TID 0000.0001) %MON dynstat_wvel_sd              =   1.9147310832030E-05
(PID.TID 0000.0001) %MON dynstat_theta_max            =   2.6159167996023E+01
(PID.TID 0000.0001) %MON dynstat_theta_min            =   1.8064727610140E+00
(PID.TID 0000.0001) %MON dynstat_theta_mean           =   1.2447502758470E+01
(PID.TID 0000.0001) %MON dynstat_theta_sd             =   7.6502195774382E+00
(PID.TID 0000.0001) %MON dynstat_salt_max             =   3.7405808612481E+01
(PID.TID 0000.0001) %MON dynstat_salt_min             =   3.4726840408738E+01
(PID.TID 0000.0001) %MON dynstat_salt_mean            =   3.5765312290717E+01
(PID.TID 0000.0001) %MON dynstat_salt_sd              =   7.4226885590178E-01
(PID.TID 0000.0001) %MON advcfl_uvel_max              =   3.6263134799053E-03
(PID.TID 0000.0001) %MON advcfl_vvel_max              =   1.9618446734678E-03
(PID.TID 0000.0001) %MON advcfl_wvel_max              =   5.0239967808999E-03
(PID.TID 0000.0001) %MON advcfl_W_hf_max              =   8.0027780909142E-03
(PID.TID 0000.0001) %MON ke_max                       =   2.5623471124506E-02
(PID.TID 0000.0001) %MON ke_mean                      =   4.7315259940343E-04
(PID.TID 0000.0001) // =======================================================
(PID.TID 0000.0001) // End MONITOR dynamic field statistics
(PID.TID 0000.0001) // =======================================================
 cg2d: Sum(rhs),rhsMax =  -7.63625274124990E-15  5.50497557820687E-01
(PID.TID 0000.0001)                    cg2d_init_res =    6.13181043536557E-02
(PID.TID 0000.0001)                       cg2d_iters =    44
(PID.TID 0000.0001)                         cg2d_res =    8.10435009431070E-14
(PID.TID 0000.0001) // =======================================================
(PID.TID 0000.0001) // Begin MONITOR dynamic field statistics
(PID.TID 0000.0001) // =======================================================
(PID.TID 0000.0001) %MON time_tsnumber                =                    20
(PID.TID 0000.0001) %MON time_secondsf                =   7.2000000000000E+04
(PID.TID 0000.0001) %MON time_secondsi                =                 72000
(PID.TID 0000.0001) %MON dynstat_eta_max              =   1.5213805831979E-01
(PID.TID 0000.0001) %MON dynstat_eta_min              =  -2.2591636504252E-01
(PID.TID 0000.0001) %MON dynstat_eta_mean             =  -2.5915909988392E-03
(PID.TID 0000.0001) %MON dynstat_eta_sd               =   7.9861249206317E-02
(PID.TID 0000.0001) %MON dynstat_uvel_max             =   3.2081719507557E-02
(PID.TID 0000.0001) %MON dynstat_uvel_min             =  -2.1152929684883E-01
(PID.TID 0000.0001) %MON dynstat_uvel_mean            =  -7.9792655852895E-03
(PID.TID 0000.0001) %MON dynstat_uvel_sd              =   2.4868454813207E-02
(PID.TID 0000.0001) %MON dynstat_vvel_max             =   1.2928220484344E-01
(PID.TID 0000.0001) %MON dynstat_vvel_min             =  -1.1437549461466E-01
(PID.TID 0000.0001) %MON dynstat_vvel_mean            =   2.6869262497697E-03
(PID.TID 0000.0001) %MON dynstat_vvel_sd              =   1.7612991294937E-02
(PID.TID 0000.0001) %MON dynstat_wvel_max             =   8.0621833404242E-05
(PID.TID 0000.0001) %MON dynstat_wvel_min             =  -1.7150301733305E-04
(PID.TID 0000.0001) %MON dynstat_wvel_mean            =  -1.1978223707130E-08
(PID.TID 0000.0001) %MON dynstat_wvel_sd              =   1.8001306809126E-05
(PID.TID 0000.0001) %MON dynstat_theta_max            =   2.6164988122899E+01
(PID.TID 0000.0001) %MON dynstat_theta_min            =   1.8064759285567E+00
(PID.TID 0000.0001) %MON dynstat_theta_mean           =   1.2447693770886E+01
(PID.TID 0000.0001) %MON dynstat_theta_sd             =   7.6504461022134E+00
(PID.TID 0000.0001) %MON dynstat_salt_max             =   3.7406171049039E+01
(PID.TID 0000.0001) %MON dynstat_salt_min             =   3.4726847936652E+01
(PID.TID 0000.0001) %MON dynstat_salt_mean            =   3.5765330022364E+01
(PID.TID 0000.0001) %MON dynstat_salt_sd              =   7.4228574758290E-01
(PID.TID 0000.0001) %MON advcfl_uvel_max              =   3.5455405181543E-03
(PID.TID 0000.0001) %MON advcfl_vvel_max              =   2.0931215803163E-03
(PID.TID 0000.0001) %MON advcfl_wvel_max              =   5.1003564088876E-03
(PID.TID 0000.0001) %MON advcfl_W_hf_max              =   7.9516139289995E-03
(PID.TID 0000.0001) %MON ke_max                       =   2.5138243663660E-02
(PID.TID 0000.0001) %MON ke_mean                      =   4.5556739010352E-04
(PID.TID 0000.0001) // =======================================================
(PID.TID 0000.0001) // End MONITOR dynamic field statistics
(PID.TID 0000.0001) // =======================================================
(PID.TID 0000.0001)   Seconds in section "ALL                [THE_MODEL_MAIN]":
(PID.TID 0000.0001)           User time:  8.21999954
(PID.TID 0000.0001)         System time:  0.189999998
(PID.TID 0000.0001)     Wall clock time:  8.53464901
(PID.TID 0000.0001)          No. starts: 1
(PID.TID 0000.0001)           No. stops: 1
(PID.TID 0000.0001)   Seconds in section "INITIALISE_FIXED   [THE_MODEL_MAIN]":
(PID.TID 0000.0001)           User time:  0.119999995
(PID.TID 0000.0001)         System time:  0.0299999993
(PID.TID 0000.0001)     Wall clock time:  0.164543986
(PID.TID 0000.0001)          No. starts: 1
(PID.TID 0000.0001)           No. stops: 1
(PID.TID 0000.0001)   Seconds in section "THE_MAIN_LOOP      [THE_MODEL_MAIN]":
(PID.TID 0000.0001)           User time:  8.00000012
(PID.TID 0000.0001)         System time:  0.140000002
(PID.TID 0000.0001)     Wall clock time:  8.24849296
(PID.TID 0000.0001)          No. starts: 1
(PID.TID 0000.0001)           No. stops: 1
(PID.TID 0000.0001)   Seconds in section "INITIALISE_VARIA    [THE_MAIN_LOOP]":
(PID.TID 0000.0001)           User time:  0.769999981
(PID.TID 0000.0001)         System time:  0.0700000022
(PID.TID 0000.0001)     Wall clock time:  0.872416973
(PID.TID 0000.0001)          No. starts: 1
(PID.TID 0000.0001)           No. stops: 1
(PID.TID 0000.0001)   Seconds in section "WRITE_STATE         [THE_MAIN_LOOP]":
(PID.TID 0000.0001)           User time:  0.030000031
(PID.TID 0000.0001)         System time:  0.
(PID.TID 0000.0001)     Wall clock time:  0.0253150463
(PID.TID 0000.0001)          No. starts: 1
(PID.TID 0000.0001)           No. stops: 1
(PID.TID 0000.0001)   Seconds in section "MONITOR             [THE_MAIN_LOOP]":
(PID.TID 0000.0001)           User time:  0.00999999046
(PID.TID 0000.0001)         System time:  0.
(PID.TID 0000.0001)     Wall clock time:  0.0110570192
(PID.TID 0000.0001)          No. starts: 1
(PID.TID 0000.0001)           No. stops: 1
(PID.TID 0000.0001)   Seconds in section "MAIN LOOP           [THE_MAIN_LOOP]":
(PID.TID 0000.0001)           User time:  7.19000012
(PID.TID 0000.0001)         System time:  0.0700000003
(PID.TID 0000.0001)     Wall clock time:  7.3393141
(PID.TID 0000.0001)          No. starts: 1
(PID.TID 0000.0001)           No. stops: 1
(PID.TID 0000.0001)   Seconds in section "FORWARD_STEP        [THE_MAIN_LOOP]":
(PID.TID 0000.0001)           User time:  7.19000012
(PID.TID 0000.0001)         System time:  0.0700000003
(PID.TID 0000.0001)     Wall clock time:  7.33780706
(PID.TID 0000.0001)          No. starts: 20
(PID.TID 0000.0001)           No. stops: 20
(PID.TID 0000.0001)   Seconds in section "EXTERNAL_FIELDS_LOAD[THE_MAIN_LOOP]":
(PID.TID 0000.0001)           User time:  0.0600001812
(PID.TID 0000.0001)         System time:  0.
(PID.TID 0000.0001)     Wall clock time:  0.0264393091
(PID.TID 0000.0001)          No. starts: 20
(PID.TID 0000.0001)           No. stops: 20
(PID.TID 0000.0001)   Seconds in section "THERMODYNAMICS      [THE_MAIN_LOOP]":
(PID.TID 0000.0001)           User time:  3.54999989
(PID.TID 0000.0001)         System time:  0.0500000045
(PID.TID 0000.0001)     Wall clock time:  3.62618911
(PID.TID 0000.0001)          No. starts: 20
(PID.TID 0000.0001)           No. stops: 20
(PID.TID 0000.0001)   Seconds in section "STATEKPP      [KPP_CALC]":
(PID.TID 0000.0001)           User time:  0.600000918
(PID.TID 0000.0001)         System time:  0.00999999791
(PID.TID 0000.0001)     Wall clock time:  0.623560071
(PID.TID 0000.0001)          No. starts: 20
(PID.TID 0000.0001)           No. stops: 20
(PID.TID 0000.0001)   Seconds in section "KPPMIX [KPP_CALC]":
(PID.TID 0000.0001)           User time:  0.9599998
(PID.TID 0000.0001)         System time:  0.0200000107
(PID.TID 0000.0001)     Wall clock time:  0.982827663
(PID.TID 0000.0001)          No. starts: 20
(PID.TID 0000.0001)           No. stops: 20
(PID.TID 0000.0001)   Seconds in section "DYNAMICS            [THE_MAIN_LOOP]":
(PID.TID 0000.0001)           User time:  2.76000059
(PID.TID 0000.0001)         System time:  0.0199999958
(PID.TID 0000.0001)     Wall clock time:  2.75757933
(PID.TID 0000.0001)          No. starts: 20
(PID.TID 0000.0001)           No. stops: 20
(PID.TID 0000.0001)   Seconds in section "SOLVE_FOR_PRESSURE  [THE_MAIN_LOOP]":
(PID.TID 0000.0001)           User time:  0.229999304
(PID.TID 0000.0001)         System time:  0.
(PID.TID 0000.0001)     Wall clock time:  0.26886487
(PID.TID 0000.0001)          No. starts: 20
(PID.TID 0000.0001)           No. stops: 20
(PID.TID 0000.0001)   Seconds in section "THE_CORRECTION_STEP [THE_MAIN_LOOP]":
(PID.TID 0000.0001)           User time:  0.160000086
(PID.TID 0000.0001)         System time:  0.
(PID.TID 0000.0001)     Wall clock time:  0.148570895
(PID.TID 0000.0001)          No. starts: 20
(PID.TID 0000.0001)           No. stops: 20
(PID.TID 0000.0001)   Seconds in section "BLOCKING_EXCHANGES  [THE_MAIN_LOOP]":
(PID.TID 0000.0001)           User time:  0.0900006294
(PID.TID 0000.0001)         System time:  0.
(PID.TID 0000.0001)     Wall clock time:  0.100708961
(PID.TID 0000.0001)          No. starts: 20
(PID.TID 0000.0001)           No. stops: 20
(PID.TID 0000.0001)   Seconds in section "DO_THE_MODEL_IO     [THE_MAIN_LOOP]":
(PID.TID 0000.0001)           User time:  0.0199995041
(PID.TID 0000.0001)         System time:  0.
(PID.TID 0000.0001)     Wall clock time:  0.120037913
(PID.TID 0000.0001)          No. starts: 20
(PID.TID 0000.0001)           No. stops: 20
(PID.TID 0000.0001)   Seconds in section "WRITE_CHECKPOINT    [THE_MAIN_LOOP]":
(PID.TID 0000.0001)           User time:  0.0100002289
(PID.TID 0000.0001)         System time:  0.
(PID.TID 0000.0001)     Wall clock time:  0.00145494938
(PID.TID 0000.0001)          No. starts: 20
(PID.TID 0000.0001)           No. stops: 20
(PID.TID 0000.0001)   Seconds in section "WRITE_CHECKPOINT   [THE_MODEL_MAIN]":
(PID.TID 0000.0001)           User time:  0.0999994278
(PID.TID 0000.0001)         System time:  0.0199999958
(PID.TID 0000.0001)     Wall clock time:  0.121264935
(PID.TID 0000.0001)          No. starts: 1
(PID.TID 0000.0001)           No. stops: 1
(PID.TID 0000.0001) // ======================================================
(PID.TID 0000.0001) // Tile <-> Tile communication statistics
(PID.TID 0000.0001) // ======================================================
(PID.TID 0000.0001) // o Tile number: 000001
(PID.TID 0000.0001) //         No. X exchanges =              0
(PID.TID 0000.0001) //            Max. X spins =              0
(PID.TID 0000.0001) //            Min. X spins =     1000000000
(PID.TID 0000.0001) //          Total. X spins =              0
(PID.TID 0000.0001) //            Avg. X spins =       0.00E+00
(PID.TID 0000.0001) //         No. Y exchanges =              0
(PID.TID 0000.0001) //            Max. Y spins =              0
(PID.TID 0000.0001) //            Min. Y spins =     1000000000
(PID.TID 0000.0001) //          Total. Y spins =              0
(PID.TID 0000.0001) //            Avg. Y spins =       0.00E+00
(PID.TID 0000.0001) // o Thread number: 000001
(PID.TID 0000.0001) //            No. barriers =          15420
(PID.TID 0000.0001) //      Max. barrier spins =              1
(PID.TID 0000.0001) //      Min. barrier spins =              1
(PID.TID 0000.0001) //     Total barrier spins =          15420
(PID.TID 0000.0001) //      Avg. barrier spins =       1.00E+00
