(PID.TID 0000.0001) 
(PID.TID 0000.0001) // ======================================================
(PID.TID 0000.0001) //                      MITgcm UV
(PID.TID 0000.0001) //                      =========
(PID.TID 0000.0001) // ======================================================
(PID.TID 0000.0001) // execution environment starting up...
(PID.TID 0000.0001) 
(PID.TID 0000.0001) // MITgcmUV version:  checkpoint61r
(PID.TID 0000.0001) // Build user:        jmc
(PID.TID 0000.0001) // Build host:        faulks
(PID.TID 0000.0001) // Build date:        Mon Jun 29 17:56:31 EDT 2009
(PID.TID 0000.0001) 
(PID.TID 0000.0001) // =======================================================
(PID.TID 0000.0001) // Execution Environment parameter file "eedata"
(PID.TID 0000.0001) // =======================================================
(PID.TID 0000.0001) ># Example "eedata" file
(PID.TID 0000.0001) ># Lines beginning "#" are comments
(PID.TID 0000.0001) ># nTx - No. threads per process in X
(PID.TID 0000.0001) ># nTy - No. threads per process in Y
(PID.TID 0000.0001) > &EEPARMS
(PID.TID 0000.0001) > nTx=1,
(PID.TID 0000.0001) > nTy=1,
(PID.TID 0000.0001) > &
(PID.TID 0000.0001) ># Note: Some systems use & as the
(PID.TID 0000.0001) ># namelist terminator. Other systems
(PID.TID 0000.0001) ># use a / character (as shown here).
(PID.TID 0000.0001) 
(PID.TID 0000.0001) // =======================================================
(PID.TID 0000.0001) // Computational Grid Specification ( see files "SIZE.h" )
(PID.TID 0000.0001) //                                  ( and "eedata"       )
(PID.TID 0000.0001) // =======================================================
(PID.TID 0000.0001)      nPx =    1 ; /* No. processes in X */
(PID.TID 0000.0001)      nPy =    1 ; /* No. processes in Y */
(PID.TID 0000.0001)      nSx =    2 ; /* No. tiles in X per process */
(PID.TID 0000.0001)      nSy =    2 ; /* No. tiles in Y per process */
(PID.TID 0000.0001)      sNx =   10 ; /* Tile size in X */
(PID.TID 0000.0001)      sNy =    8 ; /* Tile size in Y */
(PID.TID 0000.0001)      OLx =    4 ; /* Tile overlap distance in X */
(PID.TID 0000.0001)      OLy =    4 ; /* Tile overlap distance in Y */
(PID.TID 0000.0001)      nTx =    1 ; /* No. threads in X per process */
(PID.TID 0000.0001)      nTy =    1 ; /* No. threads in Y per process */
(PID.TID 0000.0001)       Nr =   23 ; /* No. levels in the vertical   */
(PID.TID 0000.0001)       Nx =   20 ; /* Total domain size in X ( = nPx*nSx*sNx ) */
(PID.TID 0000.0001)       Ny =   16 ; /* Total domain size in Y ( = nPy*nSy*sNy ) */
(PID.TID 0000.0001)   nTiles =    4 ; /* Total no. tiles per process ( = nSx*nSy ) */
(PID.TID 0000.0001)   nProcs =    1 ; /* Total no. processes ( = nPx*nPy ) */
(PID.TID 0000.0001) nThreads =    1 ; /* Total no. threads per process ( = nTx*nTy ) */
(PID.TID 0000.0001) usingMPI =    F ; /* Flag used to control whether MPI is in use */
(PID.TID 0000.0001)                   /*  note: To execute a program with MPI calls */
(PID.TID 0000.0001)                   /*  it must be launched appropriately e.g     */
(PID.TID 0000.0001)                   /*  "mpirun -np 64 ......"                    */
(PID.TID 0000.0001) useCoupler=    F ;/* Flag used to control communications with   */
(PID.TID 0000.0001)                   /*  other model components, through a coupler */
(PID.TID 0000.0001) printMapIncludesZeros=    F ; /* print zeros in Std.Output maps */
(PID.TID 0000.0001) maxLengthPrt1D=   65 /* maxLength of 1D array printed to StdOut */
(PID.TID 0000.0001) 
(PID.TID 0000.0001) // ======================================================
(PID.TID 0000.0001) // Mapping of tiles to threads
(PID.TID 0000.0001) // ======================================================
(PID.TID 0000.0001) // -o- Thread   1, tiles (   1:   2,   1:   2)
(PID.TID 0000.0001) 
(PID.TID 0000.0001) // ======================================================
(PID.TID 0000.0001) // Tile <-> Tile connectvity table
(PID.TID 0000.0001) // ======================================================
(PID.TID 0000.0001) // Tile number: 000001 (process no. = 000001)
(PID.TID 0000.0001) //        WEST: Tile = 000002, Process = 000001, Comm = put
(PID.TID 0000.0001) //                bi = 000002, bj = 000001
(PID.TID 0000.0001) //        EAST: Tile = 000002, Process = 000001, Comm = put
(PID.TID 0000.0001) //                bi = 000002, bj = 000001
(PID.TID 0000.0001) //       SOUTH: Tile = 000003, Process = 000001, Comm = put
(PID.TID 0000.0001) //                bi = 000001, bj = 000002
(PID.TID 0000.0001) //       NORTH: Tile = 000003, Process = 000001, Comm = put
(PID.TID 0000.0001) //                bi = 000001, bj = 000002
(PID.TID 0000.0001) // Tile number: 000002 (process no. = 000001)
(PID.TID 0000.0001) //        WEST: Tile = 000001, Process = 000001, Comm = put
(PID.TID 0000.0001) //                bi = 000001, bj = 000001
(PID.TID 0000.0001) //        EAST: Tile = 000001, Process = 000001, Comm = put
(PID.TID 0000.0001) //                bi = 000001, bj = 000001
(PID.TID 0000.0001) //       SOUTH: Tile = 000004, Process = 000001, Comm = put
(PID.TID 0000.0001) //                bi = 000002, bj = 000002
(PID.TID 0000.0001) //       NORTH: Tile = 000004, Process = 000001, Comm = put
(PID.TID 0000.0001) //                bi = 000002, bj = 000002
(PID.TID 0000.0001) // Tile number: 000003 (process no. = 000001)
(PID.TID 0000.0001) //        WEST: Tile = 000004, Process = 000001, Comm = put
(PID.TID 0000.0001) //                bi = 000002, bj = 000002
(PID.TID 0000.0001) //        EAST: Tile = 000004, Process = 000001, Comm = put
(PID.TID 0000.0001) //                bi = 000002, bj = 000002
(PID.TID 0000.0001) //       SOUTH: Tile = 000001, Process = 000001, Comm = put
(PID.TID 0000.0001) //                bi = 000001, bj = 000001
(PID.TID 0000.0001) //       NORTH: Tile = 000001, Process = 000001, Comm = put
(PID.TID 0000.0001) //                bi = 000001, bj = 000001
(PID.TID 0000.0001) // Tile number: 000004 (process no. = 000001)
(PID.TID 0000.0001) //        WEST: Tile = 000003, Process = 000001, Comm = put
(PID.TID 0000.0001) //                bi = 000001, bj = 000002
(PID.TID 0000.0001) //        EAST: Tile = 000003, Process = 000001, Comm = put
(PID.TID 0000.0001) //                bi = 000001, bj = 000002
(PID.TID 0000.0001) //       SOUTH: Tile = 000002, Process = 000001, Comm = put
(PID.TID 0000.0001) //                bi = 000002, bj = 000001
(PID.TID 0000.0001) //       NORTH: Tile = 000002, Process = 000001, Comm = put
(PID.TID 0000.0001) //                bi = 000002, bj = 000001
(PID.TID 0000.0001) 
(PID.TID 0000.0001) // =======================================================
(PID.TID 0000.0001) // Model parameter file "data"
(PID.TID 0000.0001) // =======================================================
(PID.TID 0000.0001) ># ====================
(PID.TID 0000.0001) ># | Model parameters |
(PID.TID 0000.0001) ># ====================
(PID.TID 0000.0001) >#
(PID.TID 0000.0001) ># Continuous equation parameters
(PID.TID 0000.0001) >#
(PID.TID 0000.0001) >#   tRef            - Reference vertical potential temperature          (deg C)
(PID.TID 0000.0001) >#   sRef            - Reference vertical salinity                         (PSU)
(PID.TID 0000.0001) >#   viscAh          - Horizontal eddy viscosity coefficient             (m^2/s)
(PID.TID 0000.0001) >#   viscAz          - Vertical eddy viscosity coefficient               (m^2/s)
(PID.TID 0000.0001) >#   diffKhT         - Horizontal temperature diffusivity                (m^2/s)
(PID.TID 0000.0001) >#   diffKzT         - Vertical temperature diffusivity                  (m^2/s)
(PID.TID 0000.0001) >#   diffKhS         - Horizontal salt diffusivity                       (m^2/s)
(PID.TID 0000.0001) >#   diffKzS         - Vertical salt diffusivity                         (m^2/s)
(PID.TID 0000.0001) >#   tAlpha          - Linear EOS thermal expansion coefficient           (1/oC)
(PID.TID 0000.0001) >#   sBeta           - Linear EOS haline contraction coefficient         (1/ppt)
(PID.TID 0000.0001) >#   gravity         - Acceleration due to gravity                       (m/s^2)
(PID.TID 0000.0001) >#   rigidLid        - Set to true to use rigid lid
(PID.TID 0000.0001) >#   implicitFreeSurface - Set to true to use implicit free surface
(PID.TID 0000.0001) >#   eosType         - Flag for linear or polynomial equation of state
(PID.TID 0000.0001) >#   GMkbackground   - background value of GM/Redi coefficient
(PID.TID 0000.0001) >#   momAdvection    - On/Off flag for momentum self transport
(PID.TID 0000.0001) >#   momViscosity    - On/Off flag for momentum mixing
(PID.TID 0000.0001) >#
(PID.TID 0000.0001) > &PARM01
(PID.TID 0000.0001) > viscAz             = 1.E-3,
(PID.TID 0000.0001) > diffKzT            = 1.E-5,
(PID.TID 0000.0001) > diffKzS            = 1.E-5,
(PID.TID 0000.0001) > viscAh             = 5.0E4,
(PID.TID 0000.0001) > viscA4             = 5.e12,
(PID.TID 0000.0001) >#diffKhT            = 1.0E3,
(PID.TID 0000.0001) >#diffKhS            = 1.0E3,
(PID.TID 0000.0001) >#rotationPeriod     = 86400.,
(PID.TID 0000.0001) > tAlpha             = 2.E-4,
(PID.TID 0000.0001) > sBeta              = 7.4E-4,
(PID.TID 0000.0001) > gravity            = 9.81,
(PID.TID 0000.0001) > rigidLid           = .FALSE.,
(PID.TID 0000.0001) > implicitFreeSurface= .TRUE.,
(PID.TID 0000.0001) > implicitDiffusion  = .TRUE.,
(PID.TID 0000.0001) > useCDscheme        = .TRUE.,
(PID.TID 0000.0001) > useNHMTerms        = .TRUE.,
(PID.TID 0000.0001) > eosType            = 'POLY3',
(PID.TID 0000.0001) > momAdvection       = .TRUE.,
(PID.TID 0000.0001) > momViscosity       = .TRUE.,
(PID.TID 0000.0001) > implicitDiffusion  = .TRUE.,
(PID.TID 0000.0001) > implicitViscosity  = .TRUE.,
(PID.TID 0000.0001) > no_slip_bottom     = .TRUE.,
(PID.TID 0000.0001) > no_slip_sides      = .FALSE.,
(PID.TID 0000.0001) > readBinaryPrec     = 32,
(PID.TID 0000.0001) > writeBinaryPrec    = 64,
(PID.TID 0000.0001) >#- not safe to use globalFiles in multi-processors runs
(PID.TID 0000.0001) > globalFiles        = .TRUE.
(PID.TID 0000.0001) > &
(PID.TID 0000.0001) >
(PID.TID 0000.0001) ># Elliptic solver parameters
(PID.TID 0000.0001) >#
(PID.TID 0000.0001) >#   cg2dMaxIters       - Maximum number of 2d solver iterations
(PID.TID 0000.0001) >#   cg2dTargetResidual - Solver target residual
(PID.TID 0000.0001) >#
(PID.TID 0000.0001) > &PARM02
(PID.TID 0000.0001) > cg2dMaxIters       = 1000,
(PID.TID 0000.0001) > cg2dTargetResidual = 1.E-13,
(PID.TID 0000.0001) > &
(PID.TID 0000.0001) >
(PID.TID 0000.0001) ># Time stepping parameters
(PID.TID 0000.0001) >#
(PID.TID 0000.0001) >#   startTime         - Integration starting time                (s)
(PID.TID 0000.0001) >#   endTime           - Integration ending time                  (s)
(PID.TID 0000.0001) >#   tauCD             - CD scheme coupling timescale             (s)
(PID.TID 0000.0001) >#   deltaTMom         - Timestep for momemtum equations          (s)
(PID.TID 0000.0001) >#   deltaTtracer      - Tracer timestep                          (s)
(PID.TID 0000.0001) >#   deltaTClock       - Timestep used as model "clock"           (s)
(PID.TID 0000.0001) >#   abEps             - Adams-Bashforth stabilising factor
(PID.TID 0000.0001) >#   pChkPtFreq        - Frequency of permanent check pointing    (s)
(PID.TID 0000.0001) >#   chkPtFreq         - Frequency of rolling check pointing      (s)
(PID.TID 0000.0001) >#   dumpFreq          - Frequency at which model state is stored (s)
(PID.TID 0000.0001) >#   tauThetaClimRelax - Relaxation to climatology time scale     (s)
(PID.TID 0000.0001) >#   tauSaltClimRelax  - Relaxation to climatology time scale     (s)
(PID.TID 0000.0001) >#
(PID.TID 0000.0001) > &PARM03
(PID.TID 0000.0001) > baseTime   = 21600.,
(PID.TID 0000.0001) > startTime  = 21600.,
(PID.TID 0000.0001) > endTime    = 93600.,
(PID.TID 0000.0001) > deltaTmom  = 3600.0,
(PID.TID 0000.0001) > TauCD      = 172800.,
(PID.TID 0000.0001) > cAdjFreq   = 0.,
(PID.TID 0000.0001) > abEps      = 0.1,
(PID.TID 0000.0001) > pChkptFreq = 0.0,
(PID.TID 0000.0001) > chkptFreq  = 0.0,
(PID.TID 0000.0001) > dumpFreq   = 86400.,
(PID.TID 0000.0001) > tauSaltClimRelax = 2592000.0,
(PID.TID 0000.0001) > tauThetaClimRelax = 2592000.0,
(PID.TID 0000.0001) > periodicExternalForcing = .TRUE.,
(PID.TID 0000.0001) > externForcingPeriod = 43200.0,
(PID.TID 0000.0001) > externForcingCycle = 2764800.0,
(PID.TID 0000.0001) > monitorFreq=1.,
(PID.TID 0000.0001) > &
(PID.TID 0000.0001) >
(PID.TID 0000.0001) ># Gridding parameters
(PID.TID 0000.0001) >#
(PID.TID 0000.0001) >#   usingSphericalPolarGrid - On/Off flag for spherical polar coordinates
(PID.TID 0000.0001) >#   delX                    - Zonal grid spacing         (degrees)
(PID.TID 0000.0001) >#   delY                    - Meridional grid spacing    (degrees)
(PID.TID 0000.0001) >#   delZ                    - Vertical grid spacing      (m)
(PID.TID 0000.0001) >#   ygOrigin                - Southern boundary latitude (degrees)
(PID.TID 0000.0001) >#
(PID.TID 0000.0001) > &PARM04
(PID.TID 0000.0001) > usingSphericalPolarGrid = .TRUE.,
(PID.TID 0000.0001) > delX   = 20*2.,
(PID.TID 0000.0001) > delY   = 16*2.,
(PID.TID 0000.0001) > delZ= 10., 10., 15., 20., 20., 25., 35., 50., 75.,
(PID.TID 0000.0001) >       100., 150., 200., 275., 350., 415., 450.,
(PID.TID 0000.0001) >       500., 500., 500., 500., 500., 500., 500.,
(PID.TID 0000.0001) > ygOrigin = 10.,
(PID.TID 0000.0001) > xgOrigin= -42.,
(PID.TID 0000.0001) > &
(PID.TID 0000.0001) >
(PID.TID 0000.0001) ># Input datasets
(PID.TID 0000.0001) >#
(PID.TID 0000.0001) >#   bathyFile       - File containing bathymetry
(PID.TID 0000.0001) >#   hydrogThetaFile - File containing initial potential temperature data
(PID.TID 0000.0001) >#   hydrogSaltFile  - File containing initial salinity data
(PID.TID 0000.0001) >#   zonalWindFile   - File containing zonal wind data
(PID.TID 0000.0001) >#   meridWindFile   - File containing meridional wind data
(PID.TID 0000.0001) >#   thetaClimFile   - File containing theta climatology used for relaxation
(PID.TID 0000.0001) >#   saltClimFile    - File containing salt climatology used for relaxation
(PID.TID 0000.0001) >#
(PID.TID 0000.0001) > &PARM05
(PID.TID 0000.0001) > bathyFile       = 'kf_topog',
(PID.TID 0000.0001) > hydrogThetaFile = 'kf_climtheta',
(PID.TID 0000.0001) > hydrogSaltFile  = 'kf_climsalt',
(PID.TID 0000.0001) > zonalWindFile   = 'kf_tx',
(PID.TID 0000.0001) > meridWindFile   = 'kf_ty',
(PID.TID 0000.0001) > thetaClimFile   = 'kf_sst',
(PID.TID 0000.0001) > saltClimFile    = 'kf_sss',
(PID.TID 0000.0001) > surfQFile       = 'kf_qnet',
(PID.TID 0000.0001) > EmPmRFile       = 'kf_empmr',
(PID.TID 0000.0001) > surfQswFile     = 'kf_sw',
(PID.TID 0000.0001) > &
(PID.TID 0000.0001) 
(PID.TID 0000.0001) S/R INI_PARMS ; starts to read PARM01
(PID.TID 0000.0001) S/R INI_PARMS ; read PARM01 : OK
(PID.TID 0000.0001) S/R INI_PARMS ; starts to read PARM02
(PID.TID 0000.0001) S/R INI_PARMS ; read PARM02 : OK
(PID.TID 0000.0001) S/R INI_PARMS ; starts to read PARM03
(PID.TID 0000.0001) S/R INI_PARMS ; read PARM03 : OK
(PID.TID 0000.0001) S/R INI_PARMS ; starts to read PARM04
(PID.TID 0000.0001) S/R INI_PARMS ; read PARM04 : OK
(PID.TID 0000.0001) S/R INI_PARMS ; starts to read PARM05
(PID.TID 0000.0001) S/R INI_PARMS ; read PARM05 : OK
(PID.TID 0000.0001)  PACKAGES_BOOT: opening data.pkg
(PID.TID 0000.0001)  OPEN_COPY_DATA_FILE: opening file data.pkg
(PID.TID 0000.0001) // =======================================================
(PID.TID 0000.0001) // Parameter file "data.pkg"
(PID.TID 0000.0001) // =======================================================
(PID.TID 0000.0001) ># Packages
(PID.TID 0000.0001) > &PACKAGES
(PID.TID 0000.0001) >  useGMRedi=.TRUE.,
(PID.TID 0000.0001) >  useKPP=.TRUE.,
(PID.TID 0000.0001) >  useECCO=.FALSE.,
(PID.TID 0000.0001) >  usediagnostics=.TRUE.,
(PID.TID 0000.0001) >  usePTRACERS=.TRUE.,
(PID.TID 0000.0001) > &
(PID.TID 0000.0001) 
(PID.TID 0000.0001)  PACKAGES_BOOT: finished reading data.pkg
(PID.TID 0000.0001)  GM_READPARMS: opening data.gmredi
(PID.TID 0000.0001)  OPEN_COPY_DATA_FILE: opening file data.gmredi
(PID.TID 0000.0001) // =======================================================
(PID.TID 0000.0001) // Parameter file "data.gmredi"
(PID.TID 0000.0001) // =======================================================
(PID.TID 0000.0001) ># GM+Redi package parameters:
(PID.TID 0000.0001) >
(PID.TID 0000.0001) >#-from MOM :
(PID.TID 0000.0001) ># GM_background_K: 	G & Mc.W  diffusion coefficient
(PID.TID 0000.0001) ># GM_maxSlope    :	max slope of isopycnals
(PID.TID 0000.0001) ># GM_Scrit       :	transition for scaling diffusion coefficient
(PID.TID 0000.0001) ># GM_Sd          :	half width scaling for diffusion coefficient
(PID.TID 0000.0001) ># GM_taper_scheme:	slope clipping or one of the tapering schemes
(PID.TID 0000.0001) ># GM_Kmin_horiz  :	horizontal diffusion minimum value
(PID.TID 0000.0001) >
(PID.TID 0000.0001) >#-Option parameters (needs to "define" options in GMREDI_OPTIONS.h")
(PID.TID 0000.0001) ># GM_isopycK     :	isopycnal diffusion coefficient (default=GM_background_K)
(PID.TID 0000.0001) ># GM_AdvForm     :	turn on GM Advective form       (default=Skew flux form)
(PID.TID 0000.0001) >
(PID.TID 0000.0001) > &GM_PARM01
(PID.TID 0000.0001) >  GM_background_K    = 800.,
(PID.TID 0000.0001) >  GM_taper_scheme    = 'gkw91',
(PID.TID 0000.0001) >  GM_maxSlope        = 1.e-2,
(PID.TID 0000.0001) >  GM_Kmin_horiz      = 50.,
(PID.TID 0000.0001) >  GM_Scrit           = 4.e-3,
(PID.TID 0000.0001) >  GM_Sd              = 1.e-3,
(PID.TID 0000.0001) ># GM_Visbeck_alpha   = 0.,
(PID.TID 0000.0001) ># GM_Visbeck_length  = 2.e+5,
(PID.TID 0000.0001) ># GM_Visbeck_depth   = 1.e+3,
(PID.TID 0000.0001) ># GM_Visbeck_maxval_K= 2.5e+3,
(PID.TID 0000.0001) > &
(PID.TID 0000.0001) >
(PID.TID 0000.0001) >
(PID.TID 0000.0001) 
(PID.TID 0000.0001)  GM_READPARMS: finished reading data.gmredi
(PID.TID 0000.0001)  KPP_INIT: opening data.kpp
(PID.TID 0000.0001)  OPEN_COPY_DATA_FILE: opening file data.kpp
(PID.TID 0000.0001) // =======================================================
(PID.TID 0000.0001) // Parameter file "data.kpp"
(PID.TID 0000.0001) // =======================================================
(PID.TID 0000.0001) ># KPP parameters
(PID.TID 0000.0001) > &KPP_PARM01
(PID.TID 0000.0001) > KPPmixingMaps   = .FALSE.,
(PID.TID 0000.0001) > KPPwriteState   = .TRUE.,
(PID.TID 0000.0001) > &
(PID.TID 0000.0001) 
(PID.TID 0000.0001)  KPP_INIT: finished reading data.kpp
(PID.TID 0000.0001)  LONGSTEP_READPARMS: opening data.longstep
(PID.TID 0000.0001)  OPEN_COPY_DATA_FILE: opening file data.longstep
(PID.TID 0000.0001) // =======================================================
(PID.TID 0000.0001) // Parameter file "data.longstep"
(PID.TID 0000.0001) // =======================================================
(PID.TID 0000.0001) > &LONGSTEP_PARM01
(PID.TID 0000.0001) > LS_nIter=3,
(PID.TID 0000.0001) >#LS_afterTS=.TRUE.,
(PID.TID 0000.0001) >#LS_staggerTimeStep=.TRUE.,
(PID.TID 0000.0001) > &
(PID.TID 0000.0001) >
(PID.TID 0000.0001) 
(PID.TID 0000.0001)  LONGSTEP_READPARMS: finished reading data.longstep
(PID.TID 0000.0001) // ===================================
(PID.TID 0000.0001) // longstep parameters
(PID.TID 0000.0001) // ===================================
(PID.TID 0000.0001) LS_nIter = /* number of dynamics steps between ptracer steps */
(PID.TID 0000.0001)                       3
(PID.TID 0000.0001)     ;
(PID.TID 0000.0001) LS_staggerTimeStep = /* average U,V,W,T,S at end of time step */
(PID.TID 0000.0001)                   F
(PID.TID 0000.0001)     ;
(PID.TID 0000.0001) LS_afterTS = /* average T,S at end of time step */
(PID.TID 0000.0001)                   F
(PID.TID 0000.0001)     ;
(PID.TID 0000.0001)  -----------------------------------
(PID.TID 0000.0001)  PTRACERS_READPARMS: opening data.ptracers
(PID.TID 0000.0001)  OPEN_COPY_DATA_FILE: opening file data.ptracers
(PID.TID 0000.0001) // =======================================================
(PID.TID 0000.0001) // Parameter file "data.ptracers"
(PID.TID 0000.0001) // =======================================================
(PID.TID 0000.0001) ># Dye set-up: tracer is initialized after 10 years
(PID.TID 0000.0001) ># of spin-up of the dynamical fields.
(PID.TID 0000.0001) ># dye.bin has a dye concentration of 1 in a single grid cell
(PID.TID 0000.0001) ># near the left boundary (i=2, j=30, k=1), zero otherwise;
(PID.TID 0000.0001) ># generated with matlab using gendata.m
(PID.TID 0000.0001) >#
(PID.TID 0000.0001) > &PTRACERS_PARM01
(PID.TID 0000.0001) > PTRACERS_numInUse=1,
(PID.TID 0000.0001) > PTRACERS_Iter0=0,
(PID.TID 0000.0001) >#
(PID.TID 0000.0001) >#PTRACERS_advScheme(1)=2,
(PID.TID 0000.0001) >#PTRACERS_diffKh(1)=1.0E3,
(PID.TID 0000.0001) >#PTRACERS_diffK4(1)=0.,
(PID.TID 0000.0001) >#PTRACERS_diffKr(1)=1.E-5,
(PID.TID 0000.0001) > PTRACERS_useKPP(1)=.TRUE.,
(PID.TID 0000.0001) > PTRACERS_useGMREDI(1)=.TRUE.,
(PID.TID 0000.0001) > PTRACERS_initialFile(1)='kf_climsalt',
(PID.TID 0000.0001) > &
(PID.TID 0000.0001) 
(PID.TID 0000.0001)  PTRACERS_READPARMS: finished reading data.ptracers
(PID.TID 0000.0001) // ===================================
(PID.TID 0000.0001) // PTRACERS parameters
(PID.TID 0000.0001) // ===================================
(PID.TID 0000.0001) PTRACERS_numInUse = /* number of tracers */
(PID.TID 0000.0001)                       1
(PID.TID 0000.0001)     ;
(PID.TID 0000.0001) PTRACERS_Iter0 = /* timestep number when tracers are initialized */
(PID.TID 0000.0001)                       0
(PID.TID 0000.0001)     ;
(PID.TID 0000.0001) PTRACERS_dTLev =   /* Ptracer timestep ( s ) */
(PID.TID 0000.0001)    23 @  1.080000000000000E+04              /* K =  1: 23 */
(PID.TID 0000.0001)     ;
(PID.TID 0000.0001) PTRACERS_dumpFreq = /* Frequency^-1 for snapshot output (s) */
(PID.TID 0000.0001)                 8.640000000000000E+04
(PID.TID 0000.0001)     ;
(PID.TID 0000.0001) PTRACERS_taveFreq = /* Frequency^-1 for time-Aver. output (s) */
(PID.TID 0000.0001)                 0.000000000000000E+00
(PID.TID 0000.0001)     ;
(PID.TID 0000.0001) PTRACERS_useRecords = /* all tracers in 1 file */
(PID.TID 0000.0001)                   F
(PID.TID 0000.0001)     ;
(PID.TID 0000.0001) PTRACERS_timeave_mnc = /* use MNC for Tave output */
(PID.TID 0000.0001)                   F
(PID.TID 0000.0001)     ;
(PID.TID 0000.0001) PTRACERS_snapshot_mnc = /* use MNC for snapshot output */
(PID.TID 0000.0001)                   F
(PID.TID 0000.0001)     ;
(PID.TID 0000.0001) PTRACERS_pickup_write_mnc = /* use MNC for writing pickups */
(PID.TID 0000.0001)                   F
(PID.TID 0000.0001)     ;
(PID.TID 0000.0001) PTRACERS_pickup_read_mnc = /* use MNC for reading pickups */
(PID.TID 0000.0001)                   F
(PID.TID 0000.0001)     ;
(PID.TID 0000.0001)  -----------------------------------
(PID.TID 0000.0001)  tracer number :    1
(PID.TID 0000.0001) PTRACERS_ioLabel = /* tracer IO Label */
(PID.TID 0000.0001)               '01'
(PID.TID 0000.0001)     ;
(PID.TID 0000.0001) PTRACERS_advScheme = /* Advection Scheme */
(PID.TID 0000.0001)                       2
(PID.TID 0000.0001)     ;
(PID.TID 0000.0001) PTRACERS_ImplVertAdv = /* implicit vert. advection flag */
(PID.TID 0000.0001)                   F
(PID.TID 0000.0001)     ;
(PID.TID 0000.0001) PTRACERS_diffKh = /* Laplacian Diffusivity */
(PID.TID 0000.0001)                 0.000000000000000E+00
(PID.TID 0000.0001)     ;
(PID.TID 0000.0001) PTRACERS_diffK4 = /* Biharmonic Diffusivity */
(PID.TID 0000.0001)                 0.000000000000000E+00
(PID.TID 0000.0001)     ;
(PID.TID 0000.0001) PTRACERS_diffKrNr = /* Vertical Diffusivity */
(PID.TID 0000.0001)    23 @  1.000000000000000E-05              /* K =  1: 23 */
(PID.TID 0000.0001)     ;
(PID.TID 0000.0001) PTRACERS_useGMRedi = /* apply GM-Redi */
(PID.TID 0000.0001)                   T
(PID.TID 0000.0001)     ;
(PID.TID 0000.0001) PTRACERS_useDWNSLP = /* apply DOWN-SLOPE Flow */
(PID.TID 0000.0001)                   F
(PID.TID 0000.0001)     ;
(PID.TID 0000.0001) PTRACERS_useKPP = /* apply KPP scheme */
(PID.TID 0000.0001)                   T
(PID.TID 0000.0001)     ;
(PID.TID 0000.0001) PTRACERS_ref = /* Reference vertical profile */
(PID.TID 0000.0001)    23 @  0.000000000000000E+00              /* K =  1: 23 */
(PID.TID 0000.0001)     ;
(PID.TID 0000.0001) PTRACERS_EvPrRn =/* tracer conc. in Evap. & Rain */
(PID.TID 0000.0001)                 1.234567000000000E+05
(PID.TID 0000.0001)     ;
(PID.TID 0000.0001)  -----------------------------------
(PID.TID 0000.0001)  DIAGNOSTICS_READPARMS: opening data.diagnostics
(PID.TID 0000.0001)  OPEN_COPY_DATA_FILE: opening file data.diagnostics
(PID.TID 0000.0001) // =======================================================
(PID.TID 0000.0001) // Parameter file "data.diagnostics"
(PID.TID 0000.0001) // =======================================================
(PID.TID 0000.0001) ># Diagnostic Package Choices
(PID.TID 0000.0001) >#-----------------
(PID.TID 0000.0001) ># for each output-stream:
(PID.TID 0000.0001) >#  filename(n) : prefix of the output file name (only 8.c long) for outp.stream n
(PID.TID 0000.0001) >#  frequency(n):< 0 : write snap-shot output every |frequency| seconds
(PID.TID 0000.0001) >#               > 0 : write time-average output every frequency seconds
(PID.TID 0000.0001) >#  timePhase(n)     : write at time = timePhase + multiple of |frequency|
(PID.TID 0000.0001) >#  levels(:,n) : list of levels to write to file (Notes: declared as REAL)
(PID.TID 0000.0001) >#                 when this entry is missing, select all common levels of this list
(PID.TID 0000.0001) >#  fields(:,n) : list of diagnostics fields (8.c) (see "available_diagnostics" file
(PID.TID 0000.0001) >#                 for the list of all available diag. in this particular config)
(PID.TID 0000.0001) >#-----------------
(PID.TID 0000.0001) ># This example dumps all KPP diagnostics as
(PID.TID 0000.0001) ># a snapshot every day, at mid day (t=12.h, baseTime=6.h, deltaT=1.h => iter=6)
(PID.TID 0000.0001) > &diagnostics_list
(PID.TID 0000.0001) >  frequency(1) = 10800.,
(PID.TID 0000.0001) >   fields(1,1) = 'TRAC01  ',
(PID.TID 0000.0001) >   filename(1) = 'TRAC01',
(PID.TID 0000.0001) > &
(PID.TID 0000.0001) >
(PID.TID 0000.0001) ># Parameter for Diagnostics of per level statistics:
(PID.TID 0000.0001) >#-----------------
(PID.TID 0000.0001) ># for each output-stream:
(PID.TID 0000.0001) >#  stat_fname(n) : prefix of the output file name (only 8.c long) for outp.stream n
(PID.TID 0000.0001) >#  stat_freq(n):< 0 : write snap-shot output every |stat_freq| seconds
(PID.TID 0000.0001) >#               > 0 : write time-average output every stat_freq seconds
(PID.TID 0000.0001) >#  stat_phase(n)    : write at time = stat_phase + multiple of |stat_freq|
(PID.TID 0000.0001) >#  stat_region(:,n) : list of "regions" (default: 1 region only=global)
(PID.TID 0000.0001) >#  stat_fields(:,n) : list of diagnostics fields (8.c) (see "available_diagnostics.log"
(PID.TID 0000.0001) >#                 file for the list of all available diag. in this particular config)
(PID.TID 0000.0001) >#-----------------
(PID.TID 0000.0001) > &DIAG_STATIS_PARMS
(PID.TID 0000.0001) >#- an example just to check the agreement with MONITOR output:
(PID.TID 0000.0001) >#stat_fields(1,1)= 'ETAN    ','UVEL    ','VVEL    ','WVEL    ', 'THETA   ',
(PID.TID 0000.0001) >#   stat_fname(1)= 'dynStDiag',
(PID.TID 0000.0001) >#    stat_freq(1)= -864000.,
(PID.TID 0000.0001) >#   stat_phase(1)= 0.,
(PID.TID 0000.0001) > &
(PID.TID 0000.0001) >
(PID.TID 0000.0001) 
(PID.TID 0000.0001) S/R DIAGNOSTICS_READPARMS, read namelist "diagnostics_list": start
(PID.TID 0000.0001) S/R DIAGNOSTICS_READPARMS, read namelist "diagnostics_list": OK
(PID.TID 0000.0001) S/R DIAGNOSTICS_READPARMS, read namelist "DIAG_STATIS_PARMS": start
(PID.TID 0000.0001) S/R DIAGNOSTICS_READPARMS, read namelist "DIAG_STATIS_PARMS": OK
(PID.TID 0000.0001) -----------------------------------------------------
(PID.TID 0000.0001)  DIAGNOSTICS_READPARMS: active diagnostics summary:
(PID.TID 0000.0001) -----------------------------------------------------
(PID.TID 0000.0001) Creating Output Stream: TRAC01
(PID.TID 0000.0001) Output Frequency:      10800.000000 ; Phase:           0.000000
(PID.TID 0000.0001)  Averaging Freq.:      10800.000000 , Phase:           0.000000 , Cycle:   1
(PID.TID 0000.0001)  missing value:  1.234567000000E+05 ; for integers:   123456789
(PID.TID 0000.0001)  Levels:    will be set later
(PID.TID 0000.0001)  Fields:    TRAC01
(PID.TID 0000.0001) -----------------------------------------------------
(PID.TID 0000.0001)  DIAGNOSTICS_READPARMS: statistics diags. summary:
(PID.TID 0000.0001) -----------------------------------------------------
(PID.TID 0000.0001) 
(PID.TID 0000.0001) S/R LONGSTEP_CHECK_ITERS:  adjusting endTime:
(PID.TID 0000.0001) endTime =   /* Integration ending time ( s ). */
(PID.TID 0000.0001)                 9.720000000000000E+04
(PID.TID 0000.0001)     ;
(PID.TID 0000.0001) nTimeSteps =   /* Number of timesteps */
(PID.TID 0000.0001)                      21
(PID.TID 0000.0001)     ;
(PID.TID 0000.0001) SET_PARMS: done
(PID.TID 0000.0001) Enter INI_VERTICAL_GRID: setInterFDr=    T ; setCenterDr=    F
(PID.TID 0000.0001) %MON XC_max                       =  -3.0000000000000E+00
(PID.TID 0000.0001) %MON XC_min                       =  -4.1000000000000E+01
(PID.TID 0000.0001) %MON XC_mean                      =  -2.2000000000000E+01
(PID.TID 0000.0001) %MON XC_sd                        =   1.1532562594671E+01
(PID.TID 0000.0001) %MON XG_max                       =  -4.0000000000000E+00
(PID.TID 0000.0001) %MON XG_min                       =  -4.2000000000000E+01
(PID.TID 0000.0001) %MON XG_mean                      =  -2.3000000000000E+01
(PID.TID 0000.0001) %MON XG_sd                        =   1.1532562594671E+01
(PID.TID 0000.0001) %MON DXC_max                      =   2.1826966005878E+05
(PID.TID 0000.0001) %MON DXC_min                      =   1.6781340848749E+05
(PID.TID 0000.0001) %MON DXC_mean                     =   1.9727395728441E+05
(PID.TID 0000.0001) %MON DXC_sd                       =   1.5731168072696E+04
(PID.TID 0000.0001) %MON DXF_max                      =   2.1826966005878E+05
(PID.TID 0000.0001) %MON DXF_min                      =   1.6781340848749E+05
(PID.TID 0000.0001) %MON DXF_mean                     =   1.9727395728441E+05
(PID.TID 0000.0001) %MON DXF_sd                       =   1.5731168072696E+04
(PID.TID 0000.0001) %MON DXG_max                      =   2.1897687543479E+05
(PID.TID 0000.0001) %MON DXG_min                      =   1.7033377132268E+05
(PID.TID 0000.0001) %MON DXG_mean                     =   1.9892312861058E+05
(PID.TID 0000.0001) %MON DXG_sd                       =   1.5180938630473E+04
(PID.TID 0000.0001) %MON DXV_max                      =   2.1897687543479E+05
(PID.TID 0000.0001) %MON DXV_min                      =   1.7033377132268E+05
(PID.TID 0000.0001) %MON DXV_mean                     =   1.9892312861058E+05
(PID.TID 0000.0001) %MON DXV_sd                       =   1.5180938630473E+04
(PID.TID 0000.0001) %MON YC_max                       =   4.1000000000000E+01
(PID.TID 0000.0001) %MON YC_min                       =   1.1000000000000E+01
(PID.TID 0000.0001) %MON YC_mean                      =   2.6000000000000E+01
(PID.TID 0000.0001) %MON YC_sd                        =   9.2195444572929E+00
(PID.TID 0000.0001) %MON YG_max                       =   4.0000000000000E+01
(PID.TID 0000.0001) %MON YG_min                       =   1.0000000000000E+01
(PID.TID 0000.0001) %MON YG_mean                      =   2.5000000000000E+01
(PID.TID 0000.0001) %MON YG_sd                        =   9.2195444572929E+00
(PID.TID 0000.0001) %MON DYC_max                      =   2.2235494670408E+05
(PID.TID 0000.0001) %MON DYC_min                      =   2.2235494670408E+05
(PID.TID 0000.0001) %MON DYC_mean                     =   2.2235494670408E+05
(PID.TID 0000.0001) %MON DYC_sd                       =   4.6566128730774E-10
(PID.TID 0000.0001) %MON DYF_max                      =   2.2235494670408E+05
(PID.TID 0000.0001) %MON DYF_min                      =   2.2235494670408E+05
(PID.TID 0000.0001) %MON DYF_mean                     =   2.2235494670408E+05
(PID.TID 0000.0001) %MON DYF_sd                       =   4.6566128730774E-10
(PID.TID 0000.0001) %MON DYG_max                      =   2.2235494670408E+05
(PID.TID 0000.0001) %MON DYG_min                      =   2.2235494670408E+05
(PID.TID 0000.0001) %MON DYG_mean                     =   2.2235494670408E+05
(PID.TID 0000.0001) %MON DYG_sd                       =   4.6566128730774E-10
(PID.TID 0000.0001) %MON DYU_max                      =   2.2235494670408E+05
(PID.TID 0000.0001) %MON DYU_min                      =   2.2235494670408E+05
(PID.TID 0000.0001) %MON DYU_mean                     =   2.2235494670408E+05
(PID.TID 0000.0001) %MON DYU_sd                       =   4.6566128730774E-10
(PID.TID 0000.0001) %MON RA_max                       =   4.8530874650285E+10
(PID.TID 0000.0001) %MON RA_min                       =   3.7312247106402E+10
(PID.TID 0000.0001) %MON RA_mean                      =   4.3862613292919E+10
(PID.TID 0000.0001) %MON RA_sd                        =   3.4977254540690E+09
(PID.TID 0000.0001) %MON RAW_max                      =   4.8530874650285E+10
(PID.TID 0000.0001) %MON RAW_min                      =   3.7312247106402E+10
(PID.TID 0000.0001) %MON RAW_mean                     =   4.3862613292919E+10
(PID.TID 0000.0001) %MON RAW_sd                       =   3.4977254540690E+09
(PID.TID 0000.0001) %MON RAS_max                      =   4.8688119503989E+10
(PID.TID 0000.0001) %MON RAS_min                      =   3.7872633798691E+10
(PID.TID 0000.0001) %MON RAS_mean                     =   4.4229296078267E+10
(PID.TID 0000.0001) %MON RAS_sd                       =   3.3753854271397E+09
(PID.TID 0000.0001) %MON RAZ_max                      =   4.8688119503989E+10
(PID.TID 0000.0001) %MON RAZ_min                      =   3.7872633798691E+10
(PID.TID 0000.0001) %MON RAZ_mean                     =   4.4229296078267E+10
(PID.TID 0000.0001) %MON RAZ_sd                       =   3.3753854271397E+09
(PID.TID 0000.0001) %MON AngleCS_max                  =   1.0000000000000E+00
(PID.TID 0000.0001) %MON AngleCS_min                  =   1.0000000000000E+00
(PID.TID 0000.0001) %MON AngleCS_mean                 =   1.0000000000000E+00
(PID.TID 0000.0001) %MON AngleCS_sd                   =   0.0000000000000E+00
(PID.TID 0000.0001) %MON AngleSN_max                  =   0.0000000000000E+00
(PID.TID 0000.0001) %MON AngleSN_min                  =   0.0000000000000E+00
(PID.TID 0000.0001) %MON AngleSN_mean                 =   0.0000000000000E+00
(PID.TID 0000.0001) %MON AngleSN_sd                   =   0.0000000000000E+00
(PID.TID 0000.0001)  MDS_READ_FIELD: opening global file: kf_topog
(PID.TID 0000.0001) // =======================================================
(PID.TID 0000.0001) // Field Model R_low (ini_masks_etc) at iteration          1
(PID.TID 0000.0001) // CMIN =         -5.200000000000000E+03
(PID.TID 0000.0001) // CMAX =         -3.600000000000000E+02
(PID.TID 0000.0001) // CINT =          1.792592592592593E+02
(PID.TID 0000.0001) // SYMBOLS (CMIN->CMAX): -abcdefghijklmnopqrstuvwxyz+
(PID.TID 0000.0001) //                  0.0: .
(PID.TID 0000.0001) // RANGE I (Lo:Hi:Step):(  -3:  24:   1)
(PID.TID 0000.0001) // RANGE J (Lo:Hi:Step):(  20:  -3:  -1)
(PID.TID 0000.0001) // RANGE K (Lo:Hi:Step):(   1:   1:   1)
(PID.TID 0000.0001) // =======================================================
(PID.TID 0000.0001) K =   1
(PID.TID 0000.0001) //                I=6       I=8       I=18
(PID.TID 0000.0001) // |--J--|321012345|789012347|901234567|901234
(PID.TID 0000.0001) //     20 .....cc-----cfkhkz--cfkhkz.......cc-
(PID.TID 0000.0001) //     19 .....c-------cccfy---cccfy.......c--
(PID.TID 0000.0001) //     18 .....hcc------ccfx----ccfx.......hcc
(PID.TID 0000.0001) //     17 ....................................
(PID.TID 0000.0001) //     16 ....................................
(PID.TID 0000.0001) //     15 hv+..fhknsqknnff-cqknnff-ckhhv+..fhk
(PID.TID 0000.0001) //     14 fhx..hknnnnkhcc-chnkhcc-chhhfhx..hkn
(PID.TID 0000.0001) //     13 fz...knnkhknf--chkknf--chkfffz...knn
(PID.TID 0000.0001) //     12 q....nkhfffhc--cfffhc--cffhnq....nkh
(PID.TID 0000.0001) //     11 +....khfccccc-ccfkccc-ccfkkv+....khf
(PID.TID 0000.0001) //     10 .....hcc---cc-cfhk-cc-cfhks......hcc
(PID.TID 0000.0001) //      9 .....fc-------cfkq----cfkq.......fc-
(PID.TID 0000.0001) //      8 .....c-------ccfkx---ccfkx.......c--
(PID.TID 0000.0001) //      7 .....c---cfcccfhk+fcccfhk+.......c--
(PID.TID 0000.0001) //      6 .....c---cccffhknvccffhknv.......c--
(PID.TID 0000.0001) //      5 .....c--ccccfkkkkqccfkkkkq.......c--
(PID.TID 0000.0001) //     12 q....nkhfffhc--cfffhc--cffhnq....nkh
(PID.TID 0000.0001) //     11 +....khfccccc-ccfkccc-ccfkkv+....khf
(PID.TID 0000.0001) //     10 .....hcc---cc-cfhk-cc-cfhks......hcc
(PID.TID 0000.0001) //      9 .....fc-------cfkq----cfkq.......fc-
(PID.TID 0000.0001) //      8 .....c-------ccfkx---ccfkx.......c--
(PID.TID 0000.0001) //      7 .....c---cfcccfhk+fcccfhk+.......c--
(PID.TID 0000.0001) //      6 .....c---cccffhknvccffhknv.......c--
(PID.TID 0000.0001) //      5 .....c--ccccfkkkkqccfkkkkq.......c--
(PID.TID 0000.0001) //      4 .....cc-----cfkhkz--cfkhkz.......cc-
(PID.TID 0000.0001) //      3 .....c-------cccfy---cccfy.......c--
(PID.TID 0000.0001) //      2 .....hcc------ccfx----ccfx.......hcc
(PID.TID 0000.0001) //      1 ....................................
(PID.TID 0000.0001) //      0 ....................................
(PID.TID 0000.0001) //     -1 hv+..fhknsqknnff-cqknnff-ckhhv+..fhk
(PID.TID 0000.0001) //     -2 fhx..hknnnnkhcc-chnkhcc-chhhfhx..hkn
(PID.TID 0000.0001) //     -3 fz...knnkhknf--chkknf--chkfffz...knn
(PID.TID 0000.0001) // =======================================================
(PID.TID 0000.0001) // END OF FIELD                                          =
(PID.TID 0000.0001) // =======================================================
(PID.TID 0000.0001) 
(PID.TID 0000.0001) // =======================================================
(PID.TID 0000.0001) // Field Model Ro_surf (ini_masks_etc) at iteration          1
(PID.TID 0000.0001) // CMIN =          1.000000000000000E+32
(PID.TID 0000.0001) // CMAX =         -1.000000000000000E+32
(PID.TID 0000.0001) // CINT =          0.000000000000000E+00
(PID.TID 0000.0001) // SYMBOLS (CMIN->CMAX): -abcdefghijklmnopqrstuvwxyz+
(PID.TID 0000.0001) //                  0.0: .
(PID.TID 0000.0001) // RANGE I (Lo:Hi:Step):(  -3:  24:   1)
(PID.TID 0000.0001) // RANGE J (Lo:Hi:Step):(  20:  -3:  -1)
(PID.TID 0000.0001) // RANGE K (Lo:Hi:Step):(   1:   1:   1)
(PID.TID 0000.0001) // =======================================================
(PID.TID 0000.0001) // =======================================================
(PID.TID 0000.0001) // END OF FIELD                                          =
(PID.TID 0000.0001) // =======================================================
(PID.TID 0000.0001) 
(PID.TID 0000.0001) // =======================================================
(PID.TID 0000.0001) // Field hFacC at iteration          1
(PID.TID 0000.0001) // CMIN =          1.000000000000000E+00
(PID.TID 0000.0001) // CMAX =          1.000000000000000E+00
(PID.TID 0000.0001) // CINT =          0.000000000000000E+00
(PID.TID 0000.0001) // SYMBOLS (CMIN->CMAX): -abcdefghijklmnopqrstuvwxyz+
(PID.TID 0000.0001) //                  0.0: .
(PID.TID 0000.0001) // RANGE I (Lo:Hi:Step):(  -3:  24:   1)
(PID.TID 0000.0001) // RANGE J (Lo:Hi:Step):(  20:  -3:  -1)
(PID.TID 0000.0001) // RANGE K (Lo:Hi:Step):(   1:   1:   1)
(PID.TID 0000.0001) // =======================================================
(PID.TID 0000.0001) // =======================================================
(PID.TID 0000.0001) // END OF FIELD                                          =
(PID.TID 0000.0001) // =======================================================
(PID.TID 0000.0001) 
(PID.TID 0000.0001) // =======================================================
(PID.TID 0000.0001) // Field hFacW at iteration          1
(PID.TID 0000.0001) // CMIN =          1.000000000000000E+00
(PID.TID 0000.0001) // CMAX =          1.000000000000000E+00
(PID.TID 0000.0001) // CINT =          0.000000000000000E+00
(PID.TID 0000.0001) // SYMBOLS (CMIN->CMAX): -abcdefghijklmnopqrstuvwxyz+
(PID.TID 0000.0001) //                  0.0: .
(PID.TID 0000.0001) // RANGE I (Lo:Hi:Step):(  -3:  24:   1)
(PID.TID 0000.0001) // RANGE J (Lo:Hi:Step):(  20:  -3:  -1)
(PID.TID 0000.0001) // RANGE K (Lo:Hi:Step):(   1:   1:   1)
(PID.TID 0000.0001) // =======================================================
(PID.TID 0000.0001) // =======================================================
(PID.TID 0000.0001) // END OF FIELD                                          =
(PID.TID 0000.0001) // =======================================================
(PID.TID 0000.0001) 
(PID.TID 0000.0001) // =======================================================
(PID.TID 0000.0001) // Field hFacS at iteration          1
(PID.TID 0000.0001) // CMIN =          1.000000000000000E+00
(PID.TID 0000.0001) // CMAX =          1.000000000000000E+00
(PID.TID 0000.0001) // CINT =          0.000000000000000E+00
(PID.TID 0000.0001) // SYMBOLS (CMIN->CMAX): -abcdefghijklmnopqrstuvwxyz+
(PID.TID 0000.0001) //                  0.0: .
(PID.TID 0000.0001) // RANGE I (Lo:Hi:Step):(  -3:  24:   1)
(PID.TID 0000.0001) // RANGE J (Lo:Hi:Step):(  20:  -3:  -1)
(PID.TID 0000.0001) // RANGE K (Lo:Hi:Step):(   1:   1:   1)
(PID.TID 0000.0001) // =======================================================
(PID.TID 0000.0001) // =======================================================
(PID.TID 0000.0001) // END OF FIELD                                          =
(PID.TID 0000.0001) // =======================================================
(PID.TID 0000.0001) 
(PID.TID 0000.0001) 
(PID.TID 0000.0001) // ===================================
(PID.TID 0000.0001) // GAD parameters :
(PID.TID 0000.0001) // ===================================
(PID.TID 0000.0001) tempAdvScheme =   /* Temp. Horiz.Advection scheme selector */
(PID.TID 0000.0001)                       2
(PID.TID 0000.0001)     ;
(PID.TID 0000.0001) tempVertAdvScheme =   /* Temp. Vert. Advection scheme selector */
(PID.TID 0000.0001)                       2
(PID.TID 0000.0001)     ;
(PID.TID 0000.0001) tempMultiDimAdvec =   /* use Muti-Dim Advec method for Temp */
(PID.TID 0000.0001)                   F
(PID.TID 0000.0001)     ;
(PID.TID 0000.0001) tempSOM_Advection = /* use 2nd Order Moment Advection for Temp */
(PID.TID 0000.0001)                   F
(PID.TID 0000.0001)     ;
(PID.TID 0000.0001) AdamsBashforthGt = /* apply Adams-Bashforth extrapolation on Gt */
(PID.TID 0000.0001)                   T
(PID.TID 0000.0001)     ;
(PID.TID 0000.0001) AdamsBashforth_T = /* apply Adams-Bashforth extrapolation on Temp */
(PID.TID 0000.0001)                   F
(PID.TID 0000.0001)     ;
(PID.TID 0000.0001) saltAdvScheme =   /* Salt. Horiz.advection scheme selector */
(PID.TID 0000.0001)                       2
(PID.TID 0000.0001)     ;
(PID.TID 0000.0001) saltVertAdvScheme =   /* Salt. Vert. Advection scheme selector */
(PID.TID 0000.0001)                       2
(PID.TID 0000.0001)     ;
(PID.TID 0000.0001) saltMultiDimAdvec =   /* use Muti-Dim Advec method for Salt */
(PID.TID 0000.0001)                   F
(PID.TID 0000.0001)     ;
(PID.TID 0000.0001) saltSOM_Advection = /* use 2nd Order Moment Advection for Salt */
(PID.TID 0000.0001)                   F
(PID.TID 0000.0001)     ;
(PID.TID 0000.0001) AdamsBashforthGs = /* apply Adams-Bashforth extrapolation on Gs */
(PID.TID 0000.0001)                   T
(PID.TID 0000.0001)     ;
(PID.TID 0000.0001) AdamsBashforth_S = /* apply Adams-Bashforth extrapolation on Salt */
(PID.TID 0000.0001)                   F
(PID.TID 0000.0001)     ;
(PID.TID 0000.0001) // ===================================
(PID.TID 0000.0001) PTRACERS_INIT_FIXED: PTRACERS_SOM_Advection(   1) =     F
(PID.TID 0000.0001) ------------------------------------------------------------
(PID.TID 0000.0001) DIAGNOSTICS_SET_LEVELS: done
(PID.TID 0000.0001)  Total Nb of available Diagnostics: ndiagt=   221
(PID.TID 0000.0001)  write list of available Diagnostics to file: available_diagnostics.log
(PID.TID 0000.0001) SETDIAG: Allocate 23 x  1 Levels for Diagnostic #   211 TRAC01
(PID.TID 0000.0001)   space allocated for all diagnostics:      23 levels
(PID.TID 0000.0001) DIAGNOSTICS_SET_POINTERS: Set levels for Outp.Stream: TRAC01
(PID.TID 0000.0001)  Levels:       1.   2.   3.   4.   5.   6.   7.   8.   9.  10.  11.  12.  13.  14.  15.  16.  17.  18.  19.  20.
(PID.TID 0000.0001)  Levels:      21.  22.  23.
(PID.TID 0000.0001) DIAGNOSTICS_SET_POINTERS: done
(PID.TID 0000.0001) ------------------------------------------------------------
(PID.TID 0000.0001) DIAGSTATS_SET_REGIONS: define no region
(PID.TID 0000.0001) ------------------------------------------------------------
(PID.TID 0000.0001)   space allocated for all stats-diags:       0 levels
(PID.TID 0000.0001) DIAGSTATS_SET_POINTERS: done
(PID.TID 0000.0001) ------------------------------------------------------------
(PID.TID 0000.0001) %MON fCori_max                    =   9.5681269476711E-05
(PID.TID 0000.0001) %MON fCori_min                    =   2.7828055248772E-05
(PID.TID 0000.0001) %MON fCori_mean                   =   6.3108629295410E-05
(PID.TID 0000.0001) %MON fCori_sd                     =   2.0943015160624E-05
(PID.TID 0000.0001) %MON fCoriG_max                   =   9.3745732900505E-05
(PID.TID 0000.0001) %MON fCoriG_min                   =   2.5325279200951E-05
(PID.TID 0000.0001) %MON fCoriG_mean                  =   6.0840818126420E-05
(PID.TID 0000.0001) %MON fCoriG_sd                    =   2.1116986447899E-05
(PID.TID 0000.0001) %MON fCoriCos_max                 =   1.4316293338671E-04
(PID.TID 0000.0001) %MON fCoriCos_min                 =   1.1006870956881E-04
(PID.TID 0000.0001) %MON fCoriCos_mean                =   1.2939186508118E-04
(PID.TID 0000.0001) %MON fCoriCos_sd                  =   1.0318063290519E-05
(PID.TID 0000.0001) INI_CG2D: CG2D normalisation factor =  1.5752923928634454E-04
(PID.TID 0000.0001) 
(PID.TID 0000.0001) // =======================================================
(PID.TID 0000.0001) // Model configuration
(PID.TID 0000.0001) // =======================================================
(PID.TID 0000.0001) //
(PID.TID 0000.0001) // "Physical" paramters ( PARM01 in namelist )
(PID.TID 0000.0001) //
(PID.TID 0000.0001) buoyancyRelation = /* Type of relation to get Buoyancy */
(PID.TID 0000.0001)               'OCEANIC'
(PID.TID 0000.0001)     ;
(PID.TID 0000.0001) fluidIsAir  =  /* fluid major constituent is Air */
(PID.TID 0000.0001)                   F
(PID.TID 0000.0001)     ;
(PID.TID 0000.0001) fluidIsWater=  /* fluid major constituent is Water */
(PID.TID 0000.0001)                   T
(PID.TID 0000.0001)     ;
(PID.TID 0000.0001) usingPCoords =  /* use p (or p*) vertical coordinate */
(PID.TID 0000.0001)                   F
(PID.TID 0000.0001)     ;
(PID.TID 0000.0001) usingZCoords =  /* use z (or z*) vertical coordinate */
(PID.TID 0000.0001)                   T
(PID.TID 0000.0001)     ;
(PID.TID 0000.0001) tRef =   /* Reference temperature profile ( oC or K ) */
(PID.TID 0000.0001)    23 @  2.000000000000000E+01              /* K =  1: 23 */
(PID.TID 0000.0001)     ;
(PID.TID 0000.0001) sRef =   /* Reference salinity profile ( psu ) */
(PID.TID 0000.0001)    23 @  3.000000000000000E+01              /* K =  1: 23 */
(PID.TID 0000.0001)     ;
(PID.TID 0000.0001) viscAh =   /* Lateral eddy viscosity ( m^2/s ) */
(PID.TID 0000.0001)                 5.000000000000000E+04
(PID.TID 0000.0001)     ;
(PID.TID 0000.0001) viscAhMax =   /* Maximum lateral eddy viscosity ( m^2/s ) */
(PID.TID 0000.0001)                 1.000000000000000E+21
(PID.TID 0000.0001)     ;
(PID.TID 0000.0001) viscAhGrid =   /* Grid dependent lateral eddy viscosity ( non-dim. ) */
(PID.TID 0000.0001)                 0.000000000000000E+00
(PID.TID 0000.0001)     ;
(PID.TID 0000.0001) useFullLeith =   /* Use Full Form of Leith Viscosity on/off flag*/
(PID.TID 0000.0001)                   F
(PID.TID 0000.0001)     ;
(PID.TID 0000.0001) useStrainTensionVisc =   /* Use StrainTension Form of Viscous Operator on/off flag*/
(PID.TID 0000.0001)                   F
(PID.TID 0000.0001)     ;
(PID.TID 0000.0001) useAreaViscLength =   /* Use area for visc length instead of geom. mean*/
(PID.TID 0000.0001)                   F
(PID.TID 0000.0001)     ;
(PID.TID 0000.0001) viscC2leith = /* Leith harmonic visc. factor (on grad(vort),non-dim.) */
(PID.TID 0000.0001)                 0.000000000000000E+00
(PID.TID 0000.0001)     ;
(PID.TID 0000.0001) viscC2leithD = /* Leith harmonic viscosity factor (on grad(div),non-dim.) */
(PID.TID 0000.0001)                 0.000000000000000E+00
(PID.TID 0000.0001)     ;
(PID.TID 0000.0001) viscC2smag =   /* Smagorinsky harmonic viscosity factor (non-dim.) */
(PID.TID 0000.0001)                 0.000000000000000E+00
(PID.TID 0000.0001)     ;
(PID.TID 0000.0001) viscA4 =   /* Lateral biharmonic viscosity ( m^4/s ) */
(PID.TID 0000.0001)                 5.000000000000000E+12
(PID.TID 0000.0001)     ;
(PID.TID 0000.0001) viscA4Max =   /* Maximum biharmonic viscosity ( m^2/s ) */
(PID.TID 0000.0001)                 1.000000000000000E+21
(PID.TID 0000.0001)     ;
(PID.TID 0000.0001) viscA4Grid =   /* Grid dependent biharmonic viscosity ( non-dim. ) */
(PID.TID 0000.0001)                 0.000000000000000E+00
(PID.TID 0000.0001)     ;
(PID.TID 0000.0001) viscC4leith = /* Leith biharm viscosity factor (on grad(vort), non-dim.) */
(PID.TID 0000.0001)                 0.000000000000000E+00
(PID.TID 0000.0001)     ;
(PID.TID 0000.0001) viscC4leithD = /* Leith biharm viscosity factor (on grad(div), non-dim.) */
(PID.TID 0000.0001)                 0.000000000000000E+00
(PID.TID 0000.0001)     ;
(PID.TID 0000.0001) viscC4Smag = /* Smagorinsky biharm viscosity factor (non-dim) */
(PID.TID 0000.0001)                 0.000000000000000E+00
(PID.TID 0000.0001)     ;
(PID.TID 0000.0001) no_slip_sides =  /* Viscous BCs: No-slip sides */
(PID.TID 0000.0001)                   F
(PID.TID 0000.0001)     ;
(PID.TID 0000.0001) sideDragFactor = /* side-drag scaling factor (non-dim) */
(PID.TID 0000.0001)                 2.000000000000000E+00
(PID.TID 0000.0001)     ;
(PID.TID 0000.0001) viscAr =   /* Vertical eddy viscosity ( m^2/s ) */
(PID.TID 0000.0001)                 1.000000000000000E-03
(PID.TID 0000.0001)     ;
(PID.TID 0000.0001) no_slip_bottom =  /* Viscous BCs: No-slip bottom */
(PID.TID 0000.0001)                   T
(PID.TID 0000.0001)     ;
(PID.TID 0000.0001) bottomDragLinear = /* linear bottom-drag coefficient ( m/s ) */
(PID.TID 0000.0001)                 0.000000000000000E+00
(PID.TID 0000.0001)     ;
(PID.TID 0000.0001) bottomDragQuadratic = /* quadratic bottom-drag coefficient (-) */
(PID.TID 0000.0001)                 0.000000000000000E+00
(PID.TID 0000.0001)     ;
(PID.TID 0000.0001) diffKhT =   /* Laplacian diffusion of heat laterally ( m^2/s ) */
(PID.TID 0000.0001)                 0.000000000000000E+00
(PID.TID 0000.0001)     ;
(PID.TID 0000.0001) diffK4T =   /* Biharmonic diffusion of heat laterally ( m^4/s ) */
(PID.TID 0000.0001)                 0.000000000000000E+00
(PID.TID 0000.0001)     ;
(PID.TID 0000.0001) diffKhS =   /* Laplacian diffusion of salt laterally ( m^2/s ) */
(PID.TID 0000.0001)                 0.000000000000000E+00
(PID.TID 0000.0001)     ;
(PID.TID 0000.0001) diffK4S =   /* Biharmonic diffusion of salt laterally ( m^4/s ) */
(PID.TID 0000.0001)                 0.000000000000000E+00
(PID.TID 0000.0001)     ;
(PID.TID 0000.0001) diffKrNrT = /* vertical profile of vertical diffusion of Temp ( m^2/s )*/
(PID.TID 0000.0001)    23 @  1.000000000000000E-05              /* K =  1: 23 */
(PID.TID 0000.0001)     ;
(PID.TID 0000.0001) diffKrNrS = /* vertical profile of vertical diffusion of Salt ( m^2/s )*/
(PID.TID 0000.0001)    23 @  1.000000000000000E-05              /* K =  1: 23 */
(PID.TID 0000.0001)     ;
(PID.TID 0000.0001) diffKrBL79surf = /* Surface diffusion for Bryan and Lewis 79 ( m^2/s ) */
(PID.TID 0000.0001)                 0.000000000000000E+00
(PID.TID 0000.0001)     ;
(PID.TID 0000.0001) diffKrBL79deep = /* Deep diffusion for Bryan and Lewis 1979 ( m^2/s ) */
(PID.TID 0000.0001)                 0.000000000000000E+00
(PID.TID 0000.0001)     ;
(PID.TID 0000.0001) diffKrBL79scl = /* Depth scale for Bryan and Lewis 1979 ( m ) */
(PID.TID 0000.0001)                 2.000000000000000E+02
(PID.TID 0000.0001)     ;
(PID.TID 0000.0001) diffKrBL79Ho = /* Turning depth for Bryan and Lewis 1979 ( m ) */
(PID.TID 0000.0001)                -2.000000000000000E+03
(PID.TID 0000.0001)     ;
(PID.TID 0000.0001) ivdc_kappa = /* Implicit Vertical Diffusivity for Convection ( m^2/s ) */
(PID.TID 0000.0001)                 0.000000000000000E+00
(PID.TID 0000.0001)     ;
(PID.TID 0000.0001) hMixCriteria=  /* Criteria for mixed-layer diagnostic */
(PID.TID 0000.0001)                -8.000000000000000E-01
(PID.TID 0000.0001)     ;
(PID.TID 0000.0001) dRhoSmall=  /* Parameter for mixed-layer diagnostic */
(PID.TID 0000.0001)                 1.000000000000000E-06
(PID.TID 0000.0001)     ;
(PID.TID 0000.0001) hMixSmooth=  /* Smoothing parameter for mixed-layer diagnostic */
(PID.TID 0000.0001)                 0.000000000000000E+00
(PID.TID 0000.0001)     ;
(PID.TID 0000.0001) eosType =  /* Type of Equation of State */
(PID.TID 0000.0001)               'POLY3 '
(PID.TID 0000.0001)     ;
(PID.TID 0000.0001) tAlpha =   /* Linear EOS thermal expansion coefficient ( 1/oC ) */
(PID.TID 0000.0001)                 2.000000000000000E-04
(PID.TID 0000.0001)     ;
(PID.TID 0000.0001) sBeta =   /* Linear EOS haline contraction coefficient ( 1/psu ) */
(PID.TID 0000.0001)                 7.400000000000000E-04
(PID.TID 0000.0001)     ;
(PID.TID 0000.0001)   1  13.499  32.600  24.480  -0.201   0.771  -0.005  -0.002   0.000   0.000   0.000   0.000   0.000
(PID.TID 0000.0001)   2  13.498  32.600  24.525  -0.202   0.771  -0.005  -0.002   0.000   0.000   0.000   0.000   0.000
(PID.TID 0000.0001)   3  13.496  32.600  24.581  -0.202   0.771  -0.005  -0.002   0.000   0.000   0.000   0.000   0.000
(PID.TID 0000.0001)   4  13.494  32.600  24.660  -0.202   0.771  -0.005  -0.002   0.000   0.000   0.000   0.000   0.000
(PID.TID 0000.0001)   5  13.491  32.600  24.750  -0.203   0.771  -0.005  -0.002   0.000   0.000   0.000   0.000   0.000
(PID.TID 0000.0001)   6  13.488  32.600  24.851  -0.203   0.770  -0.005  -0.002   0.000   0.000   0.000   0.000   0.000
(PID.TID 0000.0001)   7  13.484  32.600  24.985  -0.204   0.770  -0.005  -0.002   0.000   0.000   0.000   0.000   0.000
(PID.TID 0000.0001)   8  13.478  32.600  25.176  -0.204   0.770  -0.005  -0.002   0.000   0.000   0.000   0.000   0.000
(PID.TID 0000.0001)   9  13.469  32.600  25.456  -0.205   0.769  -0.005  -0.002   0.000   0.000   0.000   0.000   0.000
(PID.TID 0000.0001)  10   8.467  35.150  28.748  -0.163   0.781  -0.005  -0.002   0.001   0.000   0.000   0.000   0.000
(PID.TID 0000.0001)  11   8.454  35.150  29.315  -0.166   0.780  -0.005  -0.002   0.001   0.000   0.000   0.000   0.000
(PID.TID 0000.0001)  12   5.946  34.900  30.300  -0.143   0.785  -0.006  -0.002   0.001   0.000   0.000   0.000   0.000
(PID.TID 0000.0001)  13   4.433  34.900  31.591  -0.132   0.786  -0.006  -0.003   0.000   0.000   0.000   0.000   0.000
(PID.TID 0000.0001)  14   3.909  34.750  32.966  -0.134   0.785  -0.006  -0.003   0.000   0.000   0.000   0.000   0.000
(PID.TID 0000.0001)  15   1.899  34.800  35.002  -0.121   0.787  -0.006  -0.003   0.000   0.000   0.000   0.000   0.000
(PID.TID 0000.0001)  16   1.372  34.750  36.991  -0.127   0.785  -0.006  -0.003  -0.001   0.000   0.000   0.000   0.000
(PID.TID 0000.0001)  17   1.332  34.800  39.171  -0.140   0.782  -0.006  -0.003  -0.001   0.000   0.000   0.000   0.000
(PID.TID 0000.0001)  18   0.797  34.800  41.472  -0.147   0.779  -0.006  -0.003  -0.001   0.000   0.000   0.000   0.000
(PID.TID 0000.0001)  19   0.749  34.800  43.682  -0.160   0.775  -0.005  -0.002  -0.002   0.000   0.000   0.000   0.000
(PID.TID 0000.0001)  20   0.214  34.750  45.912  -0.168   0.772  -0.005  -0.002  -0.002   0.000   0.000   0.000   0.000
(PID.TID 0000.0001)  21   0.160  34.750  48.080  -0.181   0.768  -0.005  -0.002  -0.003   0.000   0.000   0.000   0.000
(PID.TID 0000.0001)  22   0.584  34.750  50.131  -0.197   0.763  -0.005  -0.002  -0.001   0.000   0.000   0.000   0.000
(PID.TID 0000.0001)  23   0.522  34.750  52.248  -0.209   0.760  -0.005  -0.002  -0.002   0.000   0.000   0.000   0.000
(PID.TID 0000.0001) rhonil =   /* Reference density ( kg/m^3 ) */
(PID.TID 0000.0001)                 9.998000000000000E+02
(PID.TID 0000.0001)     ;
(PID.TID 0000.0001) rhoConst =   /* Reference density ( kg/m^3 ) */
(PID.TID 0000.0001)                 9.998000000000000E+02
(PID.TID 0000.0001)     ;
(PID.TID 0000.0001) rhoFacC = /* normalized Reference density @ cell-Center (-) */
(PID.TID 0000.0001)    23 @  1.000000000000000E+00              /* K =  1: 23 */
(PID.TID 0000.0001)     ;
(PID.TID 0000.0001) rhoFacF = /* normalized Reference density @ W-Interface (-) */
(PID.TID 0000.0001)    24 @  1.000000000000000E+00              /* K =  1: 24 */
(PID.TID 0000.0001)     ;
(PID.TID 0000.0001) rhoConstFresh =   /* Reference density ( kg/m^3 ) */
(PID.TID 0000.0001)                 9.998000000000000E+02
(PID.TID 0000.0001)     ;
(PID.TID 0000.0001) gravity =   /* Gravitational acceleration ( m/s^2 ) */
(PID.TID 0000.0001)                 9.810000000000000E+00
(PID.TID 0000.0001)     ;
(PID.TID 0000.0001) gBaro =   /* Barotropic gravity ( m/s^2 ) */
(PID.TID 0000.0001)                 9.810000000000000E+00
(PID.TID 0000.0001)     ;
(PID.TID 0000.0001) rotationPeriod =   /* Rotation Period ( s ) */
(PID.TID 0000.0001)                 8.616400000000000E+04
(PID.TID 0000.0001)     ;
(PID.TID 0000.0001) omega =   /* Angular velocity ( rad/s ) */
(PID.TID 0000.0001)                 7.292123516990375E-05
(PID.TID 0000.0001)     ;
(PID.TID 0000.0001) f0 =   /* Reference coriolis parameter ( 1/s ) */
(PID.TID 0000.0001)                 1.000000000000000E-04
(PID.TID 0000.0001)     ;
(PID.TID 0000.0001) beta =   /* Beta ( 1/(m.s) ) */
(PID.TID 0000.0001)                 9.999999999999999E-12
(PID.TID 0000.0001)     ;
(PID.TID 0000.0001) freeSurfFac =   /* Implicit free surface factor */
(PID.TID 0000.0001)                 1.000000000000000E+00
(PID.TID 0000.0001)     ;
(PID.TID 0000.0001) implicitFreeSurface =   /* Implicit free surface on/off flag */
(PID.TID 0000.0001)                   T
(PID.TID 0000.0001)     ;
(PID.TID 0000.0001) rigidLid =   /* Rigid lid on/off flag */
(PID.TID 0000.0001)                   F
(PID.TID 0000.0001)     ;
(PID.TID 0000.0001) implicSurfPress =   /* Surface Pressure implicit factor (0-1)*/
(PID.TID 0000.0001)                 1.000000000000000E+00
(PID.TID 0000.0001)     ;
(PID.TID 0000.0001) implicDiv2Dflow =   /* Barot. Flow Div. implicit factor (0-1)*/
(PID.TID 0000.0001)                 1.000000000000000E+00
(PID.TID 0000.0001)     ;
(PID.TID 0000.0001) exactConserv =   /* Exact Volume Conservation on/off flag*/
(PID.TID 0000.0001)                   F
(PID.TID 0000.0001)     ;
(PID.TID 0000.0001) linFSConserveTr =   /* Tracer correction for Lin Free Surface on/off flag*/
(PID.TID 0000.0001)                   F
(PID.TID 0000.0001)     ;
(PID.TID 0000.0001) uniformLin_PhiSurf =   /* use uniform Bo_surf on/off flag*/
(PID.TID 0000.0001)                   T
(PID.TID 0000.0001)     ;
(PID.TID 0000.0001) nonlinFreeSurf =   /* Non-linear Free Surf. options (-1,0,1,2,3)*/
(PID.TID 0000.0001)                       0
(PID.TID 0000.0001)     ;
(PID.TID 0000.0001)      -1,0= Off ; 1,2,3= On, 2=+rescale gU,gV, 3=+update cg2d solv.
(PID.TID 0000.0001) hFacInf =   /* lower threshold for hFac (nonlinFreeSurf only)*/
(PID.TID 0000.0001)                 2.000000000000000E-01
(PID.TID 0000.0001)     ;
(PID.TID 0000.0001) hFacSup =   /* upper threshold for hFac (nonlinFreeSurf only)*/
(PID.TID 0000.0001)                 2.000000000000000E+00
(PID.TID 0000.0001)     ;
(PID.TID 0000.0001) select_rStar = /* r* Vertical coord. options (=0 r coord.; > 0 uses r*) */
(PID.TID 0000.0001)                       0
(PID.TID 0000.0001)     ;
(PID.TID 0000.0001) selectAddFluid = /* option for mass source/sink of fluid (=0: off) */
(PID.TID 0000.0001)                       0
(PID.TID 0000.0001)     ;
(PID.TID 0000.0001) useRealFreshWaterFlux = /* Real Fresh Water Flux on/off flag*/
(PID.TID 0000.0001)                   F
(PID.TID 0000.0001)     ;
(PID.TID 0000.0001) temp_EvPrRn = /* Temp. of Evap/Prec/R (UNSET=use local T)(oC)*/
(PID.TID 0000.0001)                 1.234567000000000E+05
(PID.TID 0000.0001)     ;
(PID.TID 0000.0001) salt_EvPrRn = /* Salin. of Evap/Prec/R (UNSET=use local S)(ppt)*/
(PID.TID 0000.0001)                 0.000000000000000E+00
(PID.TID 0000.0001)     ;
(PID.TID 0000.0001) convertFW2Salt = /* convert F.W. Flux to Salt Flux (-1=use local S)(ppt)*/
(PID.TID 0000.0001)                 3.500000000000000E+01
(PID.TID 0000.0001)     ;
(PID.TID 0000.0001) use3Dsolver = /* use 3-D pressure solver on/off flag */
(PID.TID 0000.0001)                   F
(PID.TID 0000.0001)     ;
(PID.TID 0000.0001) nonHydrostatic =  /* Non-Hydrostatic on/off flag */
(PID.TID 0000.0001)                   F
(PID.TID 0000.0001)     ;
(PID.TID 0000.0001) nh_Am2 = /* Non-Hydrostatic terms scaling factor */
(PID.TID 0000.0001)                 1.000000000000000E+00
(PID.TID 0000.0001)     ;
(PID.TID 0000.0001) quasiHydrostatic = /* Quasi-Hydrostatic on/off flag */
(PID.TID 0000.0001)                   F
(PID.TID 0000.0001)     ;
(PID.TID 0000.0001) momStepping =  /* Momentum equation on/off flag */
(PID.TID 0000.0001)                   T
(PID.TID 0000.0001)     ;
(PID.TID 0000.0001) vectorInvariantMomentum= /* Vector-Invariant Momentum on/off */
(PID.TID 0000.0001)                   F
(PID.TID 0000.0001)     ;
(PID.TID 0000.0001) momAdvection =  /* Momentum advection on/off flag */
(PID.TID 0000.0001)                   T
(PID.TID 0000.0001)     ;
(PID.TID 0000.0001) momViscosity =  /* Momentum viscosity on/off flag */
(PID.TID 0000.0001)                   T
(PID.TID 0000.0001)     ;
(PID.TID 0000.0001) momImplVertAdv =/* Momentum implicit vert. advection on/off*/
(PID.TID 0000.0001)                   F
(PID.TID 0000.0001)     ;
(PID.TID 0000.0001) implicitViscosity = /* Implicit viscosity on/off flag */
(PID.TID 0000.0001)                   T
(PID.TID 0000.0001)     ;
(PID.TID 0000.0001) metricTerms =  /* metric-Terms on/off flag */
(PID.TID 0000.0001)                   T
(PID.TID 0000.0001)     ;
(PID.TID 0000.0001) useNHMTerms = /* Non-Hydrostatic Metric-Terms on/off */
(PID.TID 0000.0001)                   T
(PID.TID 0000.0001)     ;
(PID.TID 0000.0001) useConstantF =  /* use Constant f0 Coriolis flag */
(PID.TID 0000.0001)                   F
(PID.TID 0000.0001)     ;
(PID.TID 0000.0001) useBetaPlaneF = /* use Beta-Plane Coriolis flag */
(PID.TID 0000.0001)                   F
(PID.TID 0000.0001)     ;
(PID.TID 0000.0001) useSphereF  =   /* use Spherical Coriolis flag */
(PID.TID 0000.0001)                   T
(PID.TID 0000.0001)     ;
(PID.TID 0000.0001) use3dCoriolis = /* 3-D Coriolis on/off flag */
(PID.TID 0000.0001)                   F
(PID.TID 0000.0001)     ;
(PID.TID 0000.0001) useCoriolis =  /* Coriolis on/off flag */
(PID.TID 0000.0001)                   T
(PID.TID 0000.0001)     ;
(PID.TID 0000.0001) useCDscheme =  /* CD scheme on/off flag */
(PID.TID 0000.0001)                   T
(PID.TID 0000.0001)     ;
(PID.TID 0000.0001) useJamartWetPoints= /* Coriolis WetPoints method flag */
(PID.TID 0000.0001)                   F
(PID.TID 0000.0001)     ;
(PID.TID 0000.0001) useJamartMomAdv= /* V.I. Non-linear terms Jamart flag */
(PID.TID 0000.0001)                   F
(PID.TID 0000.0001)     ;
(PID.TID 0000.0001) useAbsVorticity= /* Work with f+zeta in Coriolis */
(PID.TID 0000.0001)                   F
(PID.TID 0000.0001)     ;
(PID.TID 0000.0001) selectVortScheme= /* Scheme selector for Vorticity-Term */
(PID.TID 0000.0001)               123456789
(PID.TID 0000.0001)    = 0 : enstrophy (Shallow-Water Eq.) conserving scheme by Sadourny, JAS 75
(PID.TID 0000.0001)    = 1 : same as 0 with modified hFac
(PID.TID 0000.0001)    = 2 : energy conserving scheme (used by Sadourny in JAS 75 paper)
(PID.TID 0000.0001)    = 3 : energy (general) and enstrophy (2D, nonDiv.) conserving scheme
(PID.TID 0000.0001)          from Sadourny (Burridge & Haseler, ECMWF Rep.4, 1977)
(PID.TID 0000.0001)     ;
(PID.TID 0000.0001) upwindVorticity= /* Upwind bias vorticity flag */
(PID.TID 0000.0001)                   F
(PID.TID 0000.0001)     ;
(PID.TID 0000.0001) highOrderVorticity= /* High order interp. of vort. flag */
(PID.TID 0000.0001)                   F
(PID.TID 0000.0001)     ;
(PID.TID 0000.0001) upwindShear= /* Upwind vertical Shear advection flag */
(PID.TID 0000.0001)                   F
(PID.TID 0000.0001)     ;
(PID.TID 0000.0001) selectKEscheme= /* Kinetic Energy scheme selector */
(PID.TID 0000.0001)                       0
(PID.TID 0000.0001)     ;
(PID.TID 0000.0001) momForcing =  /* Momentum forcing on/off flag */
(PID.TID 0000.0001)                   T
(PID.TID 0000.0001)     ;
(PID.TID 0000.0001) momPressureForcing =  /* Momentum pressure term on/off flag */
(PID.TID 0000.0001)                   T
(PID.TID 0000.0001)     ;
(PID.TID 0000.0001) implicitIntGravWave= /* Implicit Internal Gravity Wave flag */
(PID.TID 0000.0001)                   F
(PID.TID 0000.0001)     ;
(PID.TID 0000.0001) staggerTimeStep =   /* Stagger time stepping on/off flag */
(PID.TID 0000.0001)                   F
(PID.TID 0000.0001)     ;
(PID.TID 0000.0001) multiDimAdvection =   /* enable/disable Multi-Dim Advection */
(PID.TID 0000.0001)                   T
(PID.TID 0000.0001)     ;
(PID.TID 0000.0001) useMultiDimAdvec =   /* Multi-Dim Advection is/is-not used */
(PID.TID 0000.0001)                   F
(PID.TID 0000.0001)     ;
(PID.TID 0000.0001) implicitDiffusion =/* Implicit Diffusion on/off flag */
(PID.TID 0000.0001)                   T
(PID.TID 0000.0001)     ;
(PID.TID 0000.0001) tempStepping =  /* Temperature equation on/off flag */
(PID.TID 0000.0001)                   T
(PID.TID 0000.0001)     ;
(PID.TID 0000.0001) tempAdvection=  /* Temperature advection on/off flag */
(PID.TID 0000.0001)                   T
(PID.TID 0000.0001)     ;
(PID.TID 0000.0001) tempImplVertAdv =/* Temp. implicit vert. advection on/off */
(PID.TID 0000.0001)                   F
(PID.TID 0000.0001)     ;
(PID.TID 0000.0001) tempForcing  =  /* Temperature forcing on/off flag */
(PID.TID 0000.0001)                   T
(PID.TID 0000.0001)     ;
(PID.TID 0000.0001) tempIsActiveTr = /* Temp. is a dynamically Active Tracer */
(PID.TID 0000.0001)                   T
(PID.TID 0000.0001)     ;
(PID.TID 0000.0001) saltStepping =  /* Salinity equation on/off flag */
(PID.TID 0000.0001)                   T
(PID.TID 0000.0001)     ;
(PID.TID 0000.0001) saltAdvection=  /* Salinity advection on/off flag */
(PID.TID 0000.0001)                   T
(PID.TID 0000.0001)     ;
(PID.TID 0000.0001) saltImplVertAdv =/* Sali. implicit vert. advection on/off */
(PID.TID 0000.0001)                   F
(PID.TID 0000.0001)     ;
(PID.TID 0000.0001) saltForcing  =  /* Salinity forcing on/off flag */
(PID.TID 0000.0001)                   T
(PID.TID 0000.0001)     ;
(PID.TID 0000.0001) saltIsActiveTr = /* Salt  is a dynamically Active Tracer */
(PID.TID 0000.0001)                   T
(PID.TID 0000.0001)     ;
(PID.TID 0000.0001)  readBinaryPrec = /* Precision used for reading binary files */
(PID.TID 0000.0001)                      32
(PID.TID 0000.0001)     ;
(PID.TID 0000.0001) writeBinaryPrec = /* Precision used for writing binary files */
(PID.TID 0000.0001)                      64
(PID.TID 0000.0001)     ;
(PID.TID 0000.0001)  globalFiles = /* write "global" (=not per tile) files */
(PID.TID 0000.0001)                   T
(PID.TID 0000.0001)     ;
(PID.TID 0000.0001)  useSingleCpuIO = /* only master MPI process does I/O */
(PID.TID 0000.0001)                   F
(PID.TID 0000.0001)     ;
(PID.TID 0000.0001)  debugMode  =  /* Debug Mode on/off flag */
(PID.TID 0000.0001)                   F
(PID.TID 0000.0001)     ;
(PID.TID 0000.0001)    debLevA  =  /* 1rst level of debugging */
(PID.TID 0000.0001)                       1
(PID.TID 0000.0001)     ;
(PID.TID 0000.0001)    debLevB  =  /* 2nd  level of debugging */
(PID.TID 0000.0001)                       2
(PID.TID 0000.0001)     ;
(PID.TID 0000.0001)  debugLevel =  /* select debugging level */
(PID.TID 0000.0001)                       1
(PID.TID 0000.0001)     ;
(PID.TID 0000.0001) //
(PID.TID 0000.0001) // Elliptic solver(s) paramters ( PARM02 in namelist )
(PID.TID 0000.0001) //
(PID.TID 0000.0001) cg2dMaxIters =   /* Upper limit on 2d con. grad iterations  */
(PID.TID 0000.0001)                    1000
(PID.TID 0000.0001)     ;
(PID.TID 0000.0001) cg2dChkResFreq =   /* 2d con. grad convergence test frequency */
(PID.TID 0000.0001)                       1
(PID.TID 0000.0001)     ;
(PID.TID 0000.0001) cg2dTargetResidual =   /* 2d con. grad target residual  */
(PID.TID 0000.0001)                 1.000000000000000E-13
(PID.TID 0000.0001)     ;
(PID.TID 0000.0001) cg2dTargetResWunit =   /* CG2d target residual [W units] */
(PID.TID 0000.0001)                -1.000000000000000E+00
(PID.TID 0000.0001)     ;
(PID.TID 0000.0001) cg2dPreCondFreq =   /* Freq. for updating cg2d preconditioner */
(PID.TID 0000.0001)                       1
(PID.TID 0000.0001)     ;
(PID.TID 0000.0001) //
(PID.TID 0000.0001) // Time stepping paramters ( PARM03 in namelist )
(PID.TID 0000.0001) //
(PID.TID 0000.0001) deltaTmom =   /* Momentum equation timestep ( s ) */
(PID.TID 0000.0001)                 3.600000000000000E+03
(PID.TID 0000.0001)     ;
(PID.TID 0000.0001) deltaTfreesurf = /* FreeSurface equation timestep ( s ) */
(PID.TID 0000.0001)                 3.600000000000000E+03
(PID.TID 0000.0001)     ;
(PID.TID 0000.0001) dTtracerLev =  /* Tracer equation timestep ( s ) */
(PID.TID 0000.0001)    23 @  3.600000000000000E+03              /* K =  1: 23 */
(PID.TID 0000.0001)     ;
(PID.TID 0000.0001) deltaTClock  =   /* Model clock timestep ( s ) */
(PID.TID 0000.0001)                 3.600000000000000E+03
(PID.TID 0000.0001)     ;
(PID.TID 0000.0001) cAdjFreq =   /* Convective adjustment interval ( s ) */
(PID.TID 0000.0001)                 0.000000000000000E+00
(PID.TID 0000.0001)     ;
(PID.TID 0000.0001) momForcingOutAB = /* =1: take Momentum Forcing out of Adams-Bash. stepping */
(PID.TID 0000.0001)                       0
(PID.TID 0000.0001)     ;
(PID.TID 0000.0001) tracForcingOutAB = /* =1: take T,S,pTr Forcing out of Adams-Bash. stepping */
(PID.TID 0000.0001)                       0
(PID.TID 0000.0001)     ;
(PID.TID 0000.0001) momDissip_In_AB = /* put Dissipation Tendency in Adams-Bash. stepping */
(PID.TID 0000.0001)                   T
(PID.TID 0000.0001)     ;
(PID.TID 0000.0001) doAB_onGtGs = /* apply AB on Tendencies (rather than on T,S)*/
(PID.TID 0000.0001)                   T
(PID.TID 0000.0001)     ;
(PID.TID 0000.0001) abEps =   /* Adams-Bashforth-2 stabilizing weight */
(PID.TID 0000.0001)                 1.000000000000000E-01
(PID.TID 0000.0001)     ;
(PID.TID 0000.0001) tauCD =   /* CD coupling time-scale ( s ) */
(PID.TID 0000.0001)                 1.728000000000000E+05
(PID.TID 0000.0001)     ;
(PID.TID 0000.0001) rCD =   /* Normalised CD coupling parameter */
(PID.TID 0000.0001)                 9.791666666666666E-01
(PID.TID 0000.0001)     ;
(PID.TID 0000.0001) pickupStrictlyMatch= /* stop if pickup do not strictly match */
(PID.TID 0000.0001)                   T
(PID.TID 0000.0001)     ;
(PID.TID 0000.0001) nIter0 =   /* Run starting timestep number  */
(PID.TID 0000.0001)                       0
(PID.TID 0000.0001)     ;
(PID.TID 0000.0001) nTimeSteps =   /* Number of timesteps */
(PID.TID 0000.0001)                      21
(PID.TID 0000.0001)     ;
(PID.TID 0000.0001) baseTime =   /* Model base time ( s ). */
(PID.TID 0000.0001)                 2.160000000000000E+04
(PID.TID 0000.0001)     ;
(PID.TID 0000.0001) startTime =   /* Run start time ( s ). */
(PID.TID 0000.0001)                 2.160000000000000E+04
(PID.TID 0000.0001)     ;
(PID.TID 0000.0001) endTime =   /* Integration ending time ( s ). */
(PID.TID 0000.0001)                 9.720000000000000E+04
(PID.TID 0000.0001)     ;
(PID.TID 0000.0001) pChkPtFreq =   /* Permanent restart/checkpoint file interval ( s ). */
(PID.TID 0000.0001)                 0.000000000000000E+00
(PID.TID 0000.0001)     ;
(PID.TID 0000.0001) chkPtFreq =   /* Rolling restart/checkpoint file interval ( s ). */
(PID.TID 0000.0001)                 0.000000000000000E+00
(PID.TID 0000.0001)     ;
(PID.TID 0000.0001) pickup_write_mdsio =   /* Model IO flag. */
(PID.TID 0000.0001)                   T
(PID.TID 0000.0001)     ;
(PID.TID 0000.0001) pickup_read_mdsio =   /* Model IO flag. */
(PID.TID 0000.0001)                   T
(PID.TID 0000.0001)     ;
(PID.TID 0000.0001) pickup_write_immed =   /* Model IO flag. */
(PID.TID 0000.0001)                   F
(PID.TID 0000.0001)     ;
(PID.TID 0000.0001) writePickupAtEnd =   /* Model IO flag. */
(PID.TID 0000.0001)                   T
(PID.TID 0000.0001)     ;
(PID.TID 0000.0001) dumpFreq =   /* Model state write out interval ( s ). */
(PID.TID 0000.0001)                 8.640000000000000E+04
(PID.TID 0000.0001)     ;
(PID.TID 0000.0001) dumpInitAndLast= /* write out Initial & Last iter. model state */
(PID.TID 0000.0001)                   T
(PID.TID 0000.0001)     ;
(PID.TID 0000.0001) snapshot_mdsio =   /* Model IO flag. */
(PID.TID 0000.0001)                   T
(PID.TID 0000.0001)     ;
(PID.TID 0000.0001) monitorFreq =   /* Monitor output interval ( s ). */
(PID.TID 0000.0001)                 1.000000000000000E+00
(PID.TID 0000.0001)     ;
(PID.TID 0000.0001) monitorSelect = /* select group of variables to monitor */
(PID.TID 0000.0001)                       3
(PID.TID 0000.0001)     ;
(PID.TID 0000.0001) monitor_stdio =   /* Model IO flag. */
(PID.TID 0000.0001)                   T
(PID.TID 0000.0001)     ;
(PID.TID 0000.0001) externForcingPeriod =   /* forcing period (s) */
(PID.TID 0000.0001)                 4.320000000000000E+04
(PID.TID 0000.0001)     ;
(PID.TID 0000.0001) externForcingCycle =   /* period of the cyle (s). */
(PID.TID 0000.0001)                 2.764800000000000E+06
(PID.TID 0000.0001)     ;
(PID.TID 0000.0001) tauThetaClimRelax =   /* relaxation time scale (s) */
(PID.TID 0000.0001)                 2.592000000000000E+06
(PID.TID 0000.0001)     ;
(PID.TID 0000.0001) tauSaltClimRelax =   /* relaxation time scale (s) */
(PID.TID 0000.0001)                 2.592000000000000E+06
(PID.TID 0000.0001)     ;
(PID.TID 0000.0001) latBandClimRelax =   /* max. Lat. where relaxation */
(PID.TID 0000.0001)                 1.800000000000000E+02
(PID.TID 0000.0001)     ;
(PID.TID 0000.0001) //
(PID.TID 0000.0001) // Gridding paramters ( PARM04 in namelist )
(PID.TID 0000.0001) //
(PID.TID 0000.0001) usingCartesianGrid = /* Cartesian coordinates flag ( True/False ) */
(PID.TID 0000.0001)                   F
(PID.TID 0000.0001)     ;
(PID.TID 0000.0001) usingCylindricalGrid = /* Cylindrical coordinates flag ( True/False ) */
(PID.TID 0000.0001)                   F
(PID.TID 0000.0001)     ;
(PID.TID 0000.0001) usingSphericalPolarGrid = /* Spherical coordinates flag ( True/False ) */
(PID.TID 0000.0001)                   T
(PID.TID 0000.0001)     ;
(PID.TID 0000.0001) usingCurvilinearGrid = /* Curvilinear coordinates flag ( True/False ) */
(PID.TID 0000.0001)                   F
(PID.TID 0000.0001)     ;
(PID.TID 0000.0001) Ro_SeaLevel = /* r(1) ( units of r ==  m ) */
(PID.TID 0000.0001)                 0.000000000000000E+00
(PID.TID 0000.0001)     ;
(PID.TID 0000.0001) rkSign =   /* index orientation relative to vertical coordinate */
(PID.TID 0000.0001)                -1.000000000000000E+00
(PID.TID 0000.0001)     ;
(PID.TID 0000.0001) gravitySign = /* gravity orientation relative to vertical coordinate */
(PID.TID 0000.0001)                -1.000000000000000E+00
(PID.TID 0000.0001)     ;
(PID.TID 0000.0001) mass2rUnit = /* convert mass per unit area [kg/m2] to r-units [m] */
(PID.TID 0000.0001)                 1.000200040008002E-03
(PID.TID 0000.0001)     ;
(PID.TID 0000.0001) rUnit2mass = /* convert r-units [m] to mass per unit area [kg/m2] */
(PID.TID 0000.0001)                 9.998000000000000E+02
(PID.TID 0000.0001)     ;
(PID.TID 0000.0001) drC =   /* C spacing ( units of r ) */
(PID.TID 0000.0001)                 5.000000000000000E+00,      /* K =  1 */
(PID.TID 0000.0001)                 1.000000000000000E+01,      /* K =  2 */
(PID.TID 0000.0001)                 1.250000000000000E+01,      /* K =  3 */
(PID.TID 0000.0001)                 1.750000000000000E+01,      /* K =  4 */
(PID.TID 0000.0001)                 2.000000000000000E+01,      /* K =  5 */
(PID.TID 0000.0001)                 2.250000000000000E+01,      /* K =  6 */
(PID.TID 0000.0001)                 3.000000000000000E+01,      /* K =  7 */
(PID.TID 0000.0001)                 4.250000000000000E+01,      /* K =  8 */
(PID.TID 0000.0001)                 6.250000000000000E+01,      /* K =  9 */
(PID.TID 0000.0001)                 8.750000000000000E+01,      /* K = 10 */
(PID.TID 0000.0001)                 1.250000000000000E+02,      /* K = 11 */
(PID.TID 0000.0001)                 1.750000000000000E+02,      /* K = 12 */
(PID.TID 0000.0001)                 2.375000000000000E+02,      /* K = 13 */
(PID.TID 0000.0001)                 3.125000000000000E+02,      /* K = 14 */
(PID.TID 0000.0001)                 3.825000000000000E+02,      /* K = 15 */
(PID.TID 0000.0001)                 4.325000000000000E+02,      /* K = 16 */
(PID.TID 0000.0001)                 4.750000000000000E+02,      /* K = 17 */
(PID.TID 0000.0001)     6 @  5.000000000000000E+02              /* K = 18: 23 */
(PID.TID 0000.0001)     ;
(PID.TID 0000.0001) drF =   /* W spacing ( units of r ) */
(PID.TID 0000.0001)     2 @  1.000000000000000E+01,             /* K =  1:  2 */
(PID.TID 0000.0001)                 1.500000000000000E+01,      /* K =  3 */
(PID.TID 0000.0001)     2 @  2.000000000000000E+01,             /* K =  4:  5 */
(PID.TID 0000.0001)                 2.500000000000000E+01,      /* K =  6 */
(PID.TID 0000.0001)                 3.500000000000000E+01,      /* K =  7 */
(PID.TID 0000.0001)                 5.000000000000000E+01,      /* K =  8 */
(PID.TID 0000.0001)                 7.500000000000000E+01,      /* K =  9 */
(PID.TID 0000.0001)                 1.000000000000000E+02,      /* K = 10 */
(PID.TID 0000.0001)                 1.500000000000000E+02,      /* K = 11 */
(PID.TID 0000.0001)                 2.000000000000000E+02,      /* K = 12 */
(PID.TID 0000.0001)                 2.750000000000000E+02,      /* K = 13 */
(PID.TID 0000.0001)                 3.500000000000000E+02,      /* K = 14 */
(PID.TID 0000.0001)                 4.150000000000000E+02,      /* K = 15 */
(PID.TID 0000.0001)                 4.500000000000000E+02,      /* K = 16 */
(PID.TID 0000.0001)     7 @  5.000000000000000E+02              /* K = 17: 23 */
(PID.TID 0000.0001)     ;
(PID.TID 0000.0001) delX = /* U spacing ( m - cartesian, degrees - spherical ) */
(PID.TID 0000.0001)    20 @  2.000000000000000E+00              /* I =  1: 20 */
(PID.TID 0000.0001)     ;
(PID.TID 0000.0001) delY = /* V spacing ( m - cartesian, degrees - spherical ) */
(PID.TID 0000.0001)    16 @  2.000000000000000E+00              /* J =  1: 16 */
(PID.TID 0000.0001)     ;
(PID.TID 0000.0001) xgOrigin = /* X-axis origin of West  edge (cartesian: m, lat-lon: deg.) */
(PID.TID 0000.0001)                -4.200000000000000E+01
(PID.TID 0000.0001)     ;
(PID.TID 0000.0001) ygOrigin = /* Y-axis origin of South edge (cartesian: m, lat-lon: deg.) */
(PID.TID 0000.0001)                 1.000000000000000E+01
(PID.TID 0000.0001)     ;
(PID.TID 0000.0001) rSphere =  /* Radius ( ignored - cartesian, m - spherical ) */
(PID.TID 0000.0001)                 6.370000000000000E+06
(PID.TID 0000.0001)     ;
(PID.TID 0000.0001) deepAtmosphere = /* Deep/Shallow Atmosphere flag (True/False) */
(PID.TID 0000.0001)                   F
(PID.TID 0000.0001)     ;
(PID.TID 0000.0001) xC =  /* xC(:,1,:,1) : P-point X coord ( deg. or m if cartesian) */
(PID.TID 0000.0001)                -4.100000000000000E+01,      /* I =  1 */
(PID.TID 0000.0001)                -3.900000000000000E+01,      /* I =  2 */
(PID.TID 0000.0001)                -3.700000000000000E+01,      /* I =  3 */
(PID.TID 0000.0001)                -3.500000000000000E+01,      /* I =  4 */
(PID.TID 0000.0001)                -3.300000000000000E+01,      /* I =  5 */
(PID.TID 0000.0001)                -3.100000000000000E+01,      /* I =  6 */
(PID.TID 0000.0001)                -2.900000000000000E+01,      /* I =  7 */
(PID.TID 0000.0001)                -2.700000000000000E+01,      /* I =  8 */
(PID.TID 0000.0001)                -2.500000000000000E+01,      /* I =  9 */
(PID.TID 0000.0001)                -2.300000000000000E+01,      /* I = 10 */
(PID.TID 0000.0001)                -2.100000000000000E+01,      /* I = 11 */
(PID.TID 0000.0001)                -1.900000000000000E+01,      /* I = 12 */
(PID.TID 0000.0001)                -1.700000000000000E+01,      /* I = 13 */
(PID.TID 0000.0001)                -1.500000000000000E+01,      /* I = 14 */
(PID.TID 0000.0001)                -1.300000000000000E+01,      /* I = 15 */
(PID.TID 0000.0001)                -1.100000000000000E+01,      /* I = 16 */
(PID.TID 0000.0001)                -9.000000000000000E+00,      /* I = 17 */
(PID.TID 0000.0001)                -7.000000000000000E+00,      /* I = 18 */
(PID.TID 0000.0001)                -5.000000000000000E+00,      /* I = 19 */
(PID.TID 0000.0001)                -3.000000000000000E+00       /* I = 20 */
(PID.TID 0000.0001)     ;
(PID.TID 0000.0001) yC =  /* yC(1,:,1,:) : P-point Y coord ( deg. or m if cartesian) */
(PID.TID 0000.0001)                 1.100000000000000E+01,      /* J =  1 */
(PID.TID 0000.0001)                 1.300000000000000E+01,      /* J =  2 */
(PID.TID 0000.0001)                 1.500000000000000E+01,      /* J =  3 */
(PID.TID 0000.0001)                 1.700000000000000E+01,      /* J =  4 */
(PID.TID 0000.0001)                 1.900000000000000E+01,      /* J =  5 */
(PID.TID 0000.0001)                 2.100000000000000E+01,      /* J =  6 */
(PID.TID 0000.0001)                 2.300000000000000E+01,      /* J =  7 */
(PID.TID 0000.0001)                 2.500000000000000E+01,      /* J =  8 */
(PID.TID 0000.0001)                 2.700000000000000E+01,      /* J =  9 */
(PID.TID 0000.0001)                 2.900000000000000E+01,      /* J = 10 */
(PID.TID 0000.0001)                 3.100000000000000E+01,      /* J = 11 */
(PID.TID 0000.0001)                 3.300000000000000E+01,      /* J = 12 */
(PID.TID 0000.0001)                 3.500000000000000E+01,      /* J = 13 */
(PID.TID 0000.0001)                 3.700000000000000E+01,      /* J = 14 */
(PID.TID 0000.0001)                 3.900000000000000E+01,      /* J = 15 */
(PID.TID 0000.0001)                 4.100000000000000E+01       /* J = 16 */
(PID.TID 0000.0001)     ;
(PID.TID 0000.0001) rcoord = /* P-point R coordinate (  units of r ) */
(PID.TID 0000.0001)                -5.000000000000000E+00,      /* K =  1 */
(PID.TID 0000.0001)                -1.500000000000000E+01,      /* K =  2 */
(PID.TID 0000.0001)                -2.750000000000000E+01,      /* K =  3 */
(PID.TID 0000.0001)                -4.500000000000000E+01,      /* K =  4 */
(PID.TID 0000.0001)                -6.500000000000000E+01,      /* K =  5 */
(PID.TID 0000.0001)                -8.750000000000000E+01,      /* K =  6 */
(PID.TID 0000.0001)                -1.175000000000000E+02,      /* K =  7 */
(PID.TID 0000.0001)                -1.600000000000000E+02,      /* K =  8 */
(PID.TID 0000.0001)                -2.225000000000000E+02,      /* K =  9 */
(PID.TID 0000.0001)                -3.100000000000000E+02,      /* K = 10 */
(PID.TID 0000.0001)                -4.350000000000000E+02,      /* K = 11 */
(PID.TID 0000.0001)                -6.100000000000000E+02,      /* K = 12 */
(PID.TID 0000.0001)                -8.475000000000000E+02,      /* K = 13 */
(PID.TID 0000.0001)                -1.160000000000000E+03,      /* K = 14 */
(PID.TID 0000.0001)                -1.542500000000000E+03,      /* K = 15 */
(PID.TID 0000.0001)                -1.975000000000000E+03,      /* K = 16 */
(PID.TID 0000.0001)                -2.450000000000000E+03,      /* K = 17 */
(PID.TID 0000.0001)                -2.950000000000000E+03,      /* K = 18 */
(PID.TID 0000.0001)                -3.450000000000000E+03,      /* K = 19 */
(PID.TID 0000.0001)                -3.950000000000000E+03,      /* K = 20 */
(PID.TID 0000.0001)                -4.450000000000000E+03,      /* K = 21 */
(PID.TID 0000.0001)                -4.950000000000000E+03,      /* K = 22 */
(PID.TID 0000.0001)                -5.450000000000000E+03       /* K = 23 */
(PID.TID 0000.0001)     ;
(PID.TID 0000.0001) rF =   /* W-Interf. R coordinate (  units of r ) */
(PID.TID 0000.0001)                 0.000000000000000E+00,      /* K =  1 */
(PID.TID 0000.0001)                -1.000000000000000E+01,      /* K =  2 */
(PID.TID 0000.0001)                -2.000000000000000E+01,      /* K =  3 */
(PID.TID 0000.0001)                -3.500000000000000E+01,      /* K =  4 */
(PID.TID 0000.0001)                -5.500000000000000E+01,      /* K =  5 */
(PID.TID 0000.0001)                -7.500000000000000E+01,      /* K =  6 */
(PID.TID 0000.0001)                -1.000000000000000E+02,      /* K =  7 */
(PID.TID 0000.0001)                -1.350000000000000E+02,      /* K =  8 */
(PID.TID 0000.0001)                -1.850000000000000E+02,      /* K =  9 */
(PID.TID 0000.0001)                -2.600000000000000E+02,      /* K = 10 */
(PID.TID 0000.0001)                -3.600000000000000E+02,      /* K = 11 */
(PID.TID 0000.0001)                -5.100000000000000E+02,      /* K = 12 */
(PID.TID 0000.0001)                -7.100000000000000E+02,      /* K = 13 */
(PID.TID 0000.0001)                -9.850000000000000E+02,      /* K = 14 */
(PID.TID 0000.0001)                -1.335000000000000E+03,      /* K = 15 */
(PID.TID 0000.0001)                -1.750000000000000E+03,      /* K = 16 */
(PID.TID 0000.0001)                -2.200000000000000E+03,      /* K = 17 */
(PID.TID 0000.0001)                -2.700000000000000E+03,      /* K = 18 */
(PID.TID 0000.0001)                -3.200000000000000E+03,      /* K = 19 */
(PID.TID 0000.0001)                -3.700000000000000E+03,      /* K = 20 */
(PID.TID 0000.0001)                -4.200000000000000E+03,      /* K = 21 */
(PID.TID 0000.0001)                -4.700000000000000E+03,      /* K = 22 */
(PID.TID 0000.0001)                -5.200000000000000E+03,      /* K = 23 */
(PID.TID 0000.0001)                -5.700000000000000E+03       /* K = 24 */
(PID.TID 0000.0001)     ;
(PID.TID 0000.0001) deepFacC = /* deep-model grid factor @ cell-Center (-) */
(PID.TID 0000.0001)    23 @  1.000000000000000E+00              /* K =  1: 23 */
(PID.TID 0000.0001)     ;
(PID.TID 0000.0001) deepFacF = /* deep-model grid factor @ W-Interface (-) */
(PID.TID 0000.0001)    24 @  1.000000000000000E+00              /* K =  1: 24 */
(PID.TID 0000.0001)     ;
(PID.TID 0000.0001) rVel2wUnit = /* convert units: rVel -> wSpeed (=1 if z-coord)*/
(PID.TID 0000.0001)    24 @  1.000000000000000E+00              /* K =  1: 24 */
(PID.TID 0000.0001)     ;
(PID.TID 0000.0001) wUnit2rVel = /* convert units: wSpeed -> rVel (=1 if z-coord)*/
(PID.TID 0000.0001)    24 @  1.000000000000000E+00              /* K =  1: 24 */
(PID.TID 0000.0001)     ;
(PID.TID 0000.0001) dBdrRef = /* Vertical gradient of reference boyancy [(m/s/r)^2)] */
(PID.TID 0000.0001)    23 @  0.000000000000000E+00              /* K =  1: 23 */
(PID.TID 0000.0001)     ;
(PID.TID 0000.0001) rotateGrid = /* use rotated grid ( True/False ) */
(PID.TID 0000.0001)                   F
(PID.TID 0000.0001)     ;
(PID.TID 0000.0001) phiEuler = /* Euler angle, rotation about original z-coordinate [rad] */
(PID.TID 0000.0001)                 0.000000000000000E+00
(PID.TID 0000.0001)     ;
(PID.TID 0000.0001) thetaEuler = /* Euler angle, rotation about new x-coordinate [rad] */
(PID.TID 0000.0001)                 0.000000000000000E+00
(PID.TID 0000.0001)     ;
(PID.TID 0000.0001) psiEuler = /* Euler angle, rotation about new z-coordinate [rad] */
(PID.TID 0000.0001)                 0.000000000000000E+00
(PID.TID 0000.0001)     ;
(PID.TID 0000.0001) dxF =  /* dxF(:,1,:,1) ( units: m ) */
(PID.TID 0000.0001)    20 @  2.182696600587791E+05              /* I =  1: 20 */
(PID.TID 0000.0001)     ;
(PID.TID 0000.0001) dxF =  /* dxF(1,:,1,:) ( units: m ) */
(PID.TID 0000.0001)                 2.182696600587791E+05,      /* J =  1 */
(PID.TID 0000.0001)                 2.166560038253696E+05,      /* J =  2 */
(PID.TID 0000.0001)                 2.147783856245979E+05,      /* J =  3 */
(PID.TID 0000.0001)                 2.126390930450167E+05,      /* J =  4 */
(PID.TID 0000.0001)                 2.102407324851014E+05,      /* J =  5 */
(PID.TID 0000.0001)                 2.075862259777553E+05,      /* J =  6 */
(PID.TID 0000.0001)                 2.046788076302621E+05,      /* J =  7 */
(PID.TID 0000.0001)                 2.015220196840248E+05,      /* J =  8 */
(PID.TID 0000.0001)                 1.981197081988899E+05,      /* J =  9 */
(PID.TID 0000.0001)                 1.944760183673163E+05,      /* J = 10 */
(PID.TID 0000.0001)                 1.905953894640962E+05,      /* J = 11 */
(PID.TID 0000.0001)                 1.864825494377832E+05,      /* J = 12 */
(PID.TID 0000.0001)                 1.821425091504150E+05,      /* J = 13 */
(PID.TID 0000.0001)                 1.775805562725496E+05,      /* J = 14 */
(PID.TID 0000.0001)                 1.728022488410539E+05,      /* J = 15 */
(PID.TID 0000.0001)                 1.678134084874913E+05       /* J = 16 */
(PID.TID 0000.0001)     ;
(PID.TID 0000.0001) dyF =  /* dyF(:,1,:,1) ( units: m ) */
(PID.TID 0000.0001)    20 @  2.223549467040776E+05              /* I =  1: 20 */
(PID.TID 0000.0001)     ;
(PID.TID 0000.0001) dyF =  /* dyF(1,:,1,:) ( units: m ) */
(PID.TID 0000.0001)    16 @  2.223549467040776E+05              /* J =  1: 16 */
(PID.TID 0000.0001)     ;
(PID.TID 0000.0001) dxG =  /* dxG(:,1,:,1) ( units: m ) */
(PID.TID 0000.0001)    20 @  2.189768754347919E+05              /* I =  1: 20 */
(PID.TID 0000.0001)     ;
(PID.TID 0000.0001) dxG =  /* dxG(1,:,1,:) ( units: m ) */
(PID.TID 0000.0001)                 2.189768754347919E+05,      /* J =  1 */
(PID.TID 0000.0001)                 2.174959576298867E+05,      /* J =  2 */
(PID.TID 0000.0001)                 2.157500545032935E+05,      /* J =  3 */
(PID.TID 0000.0001)                 2.137412931690361E+05,      /* J =  4 */
(PID.TID 0000.0001)                 2.114721209933746E+05,      /* J =  5 */
(PID.TID 0000.0001)                 2.089453026130656E+05,      /* J =  6 */
(PID.TID 0000.0001)                 2.061639165670793E+05,      /* J =  7 */
(PID.TID 0000.0001)                 2.031313515458727E+05,      /* J =  8 */
(PID.TID 0000.0001)                 1.998513022627935E+05,      /* J =  9 */
(PID.TID 0000.0001)                 1.963277649526403E+05,      /* J = 10 */
(PID.TID 0000.0001)                 1.925650325028661E+05,      /* J = 11 */
(PID.TID 0000.0001)                 1.885676892233566E+05,      /* J = 12 */
(PID.TID 0000.0001)                 1.843406052611541E+05,      /* J = 13 */
(PID.TID 0000.0001)                 1.798889306669345E+05,      /* J = 14 */
(PID.TID 0000.0001)                 1.752180891204627E+05,      /* J = 15 */
(PID.TID 0000.0001)                 1.703337713226751E+05       /* J = 16 */
(PID.TID 0000.0001)     ;
(PID.TID 0000.0001) dyG =  /* dyG(:,1,:,1) ( units: m ) */
(PID.TID 0000.0001)    20 @  2.223549467040776E+05              /* I =  1: 20 */
(PID.TID 0000.0001)     ;
(PID.TID 0000.0001) dyG =  /* dyG(1,:,1,:) ( units: m ) */
(PID.TID 0000.0001)    16 @  2.223549467040776E+05              /* J =  1: 16 */
(PID.TID 0000.0001)     ;
(PID.TID 0000.0001) dxC =  /* dxC(:,1,:,1) ( units: m ) */
(PID.TID 0000.0001)    20 @  2.182696600587791E+05              /* I =  1: 20 */
(PID.TID 0000.0001)     ;
(PID.TID 0000.0001) dxC =  /* dxC(1,:,1,:) ( units: m ) */
(PID.TID 0000.0001)                 2.182696600587791E+05,      /* J =  1 */
(PID.TID 0000.0001)                 2.166560038253696E+05,      /* J =  2 */
(PID.TID 0000.0001)                 2.147783856245979E+05,      /* J =  3 */
(PID.TID 0000.0001)                 2.126390930450167E+05,      /* J =  4 */
(PID.TID 0000.0001)                 2.102407324851014E+05,      /* J =  5 */
(PID.TID 0000.0001)                 2.075862259777553E+05,      /* J =  6 */
(PID.TID 0000.0001)                 2.046788076302621E+05,      /* J =  7 */
(PID.TID 0000.0001)                 2.015220196840248E+05,      /* J =  8 */
(PID.TID 0000.0001)                 1.981197081988899E+05,      /* J =  9 */
(PID.TID 0000.0001)                 1.944760183673163E+05,      /* J = 10 */
(PID.TID 0000.0001)                 1.905953894640962E+05,      /* J = 11 */
(PID.TID 0000.0001)                 1.864825494377832E+05,      /* J = 12 */
(PID.TID 0000.0001)                 1.821425091504150E+05,      /* J = 13 */
(PID.TID 0000.0001)                 1.775805562725496E+05,      /* J = 14 */
(PID.TID 0000.0001)                 1.728022488410539E+05,      /* J = 15 */
(PID.TID 0000.0001)                 1.678134084874913E+05       /* J = 16 */
(PID.TID 0000.0001)     ;
(PID.TID 0000.0001) dyC =  /* dyC(:,1,:,1) ( units: m ) */
(PID.TID 0000.0001)    20 @  2.223549467040776E+05              /* I =  1: 20 */
(PID.TID 0000.0001)     ;
(PID.TID 0000.0001) dyC =  /* dyC(1,:,1,:) ( units: m ) */
(PID.TID 0000.0001)    16 @  2.223549467040776E+05              /* J =  1: 16 */
(PID.TID 0000.0001)     ;
(PID.TID 0000.0001) dxV =  /* dxV(:,1,:,1) ( units: m ) */
(PID.TID 0000.0001)    20 @  2.189768754347919E+05              /* I =  1: 20 */
(PID.TID 0000.0001)     ;
(PID.TID 0000.0001) dxV =  /* dxV(1,:,1,:) ( units: m ) */
(PID.TID 0000.0001)                 2.189768754347919E+05,      /* J =  1 */
(PID.TID 0000.0001)                 2.174959576298867E+05,      /* J =  2 */
(PID.TID 0000.0001)                 2.157500545032935E+05,      /* J =  3 */
(PID.TID 0000.0001)                 2.137412931690361E+05,      /* J =  4 */
(PID.TID 0000.0001)                 2.114721209933746E+05,      /* J =  5 */
(PID.TID 0000.0001)                 2.089453026130656E+05,      /* J =  6 */
(PID.TID 0000.0001)                 2.061639165670793E+05,      /* J =  7 */
(PID.TID 0000.0001)                 2.031313515458727E+05,      /* J =  8 */
(PID.TID 0000.0001)                 1.998513022627935E+05,      /* J =  9 */
(PID.TID 0000.0001)                 1.963277649526403E+05,      /* J = 10 */
(PID.TID 0000.0001)                 1.925650325028661E+05,      /* J = 11 */
(PID.TID 0000.0001)                 1.885676892233566E+05,      /* J = 12 */
(PID.TID 0000.0001)                 1.843406052611541E+05,      /* J = 13 */
(PID.TID 0000.0001)                 1.798889306669345E+05,      /* J = 14 */
(PID.TID 0000.0001)                 1.752180891204627E+05,      /* J = 15 */
(PID.TID 0000.0001)                 1.703337713226751E+05       /* J = 16 */
(PID.TID 0000.0001)     ;
(PID.TID 0000.0001) dyU =  /* dyU(:,1,:,1) ( units: m ) */
(PID.TID 0000.0001)    20 @  2.223549467040776E+05              /* I =  1: 20 */
(PID.TID 0000.0001)     ;
(PID.TID 0000.0001) dyU =  /* dyU(1,:,1,:) ( units: m ) */
(PID.TID 0000.0001)    16 @  2.223549467040776E+05              /* J =  1: 16 */
(PID.TID 0000.0001)     ;
(PID.TID 0000.0001) rA  =  /* rA (:,1,:,1) ( units: m^2 ) */
(PID.TID 0000.0001)    20 @  4.853087465028468E+10              /* I =  1: 20 */
(PID.TID 0000.0001)     ;
(PID.TID 0000.0001) rA  =  /* rA (1,:,1,:) ( units: m^2 ) */
(PID.TID 0000.0001)                 4.853087465028468E+10,      /* J =  1 */
(PID.TID 0000.0001)                 4.817208842057614E+10,      /* J =  2 */
(PID.TID 0000.0001)                 4.775461192146850E+10,      /* J =  3 */
(PID.TID 0000.0001)                 4.727895378376868E+10,      /* J =  4 */
(PID.TID 0000.0001)                 4.674569352364785E+10,      /* J =  5 */
(PID.TID 0000.0001)                 4.615548083659052E+10,      /* J =  6 */
(PID.TID 0000.0001)                 4.550903480584064E+10,      /* J =  7 */
(PID.TID 0000.0001)                 4.480714302630917E+10,      /* J =  8 */
(PID.TID 0000.0001)                 4.405066064501157E+10,      /* J =  9 */
(PID.TID 0000.0001)                 4.324050931920184E+10,      /* J = 10 */
(PID.TID 0000.0001)                 4.237767609347683E+10,      /* J = 11 */
(PID.TID 0000.0001)                 4.146321219721255E+10,      /* J = 12 */
(PID.TID 0000.0001)                 4.049823176380374E+10,      /* J = 13 */
(PID.TID 0000.0001)                 3.948391047326549E+10,      /* J = 14 */
(PID.TID 0000.0001)                 3.842148411984549E+10,      /* J = 15 */
(PID.TID 0000.0001)                 3.731224710640178E+10       /* J = 16 */
(PID.TID 0000.0001)     ;
(PID.TID 0000.0001) rAw =  /* rAw(:,1,:,1) ( units: m^2 ) */
(PID.TID 0000.0001)    20 @  4.853087465028468E+10              /* I =  1: 20 */
(PID.TID 0000.0001)     ;
(PID.TID 0000.0001) rAw =  /* rAw(1,:,1,:) ( units: m^2 ) */
(PID.TID 0000.0001)                 4.853087465028468E+10,      /* J =  1 */
(PID.TID 0000.0001)                 4.817208842057614E+10,      /* J =  2 */
(PID.TID 0000.0001)                 4.775461192146850E+10,      /* J =  3 */
(PID.TID 0000.0001)                 4.727895378376868E+10,      /* J =  4 */
(PID.TID 0000.0001)                 4.674569352364785E+10,      /* J =  5 */
(PID.TID 0000.0001)                 4.615548083659052E+10,      /* J =  6 */
(PID.TID 0000.0001)                 4.550903480584064E+10,      /* J =  7 */
(PID.TID 0000.0001)                 4.480714302630917E+10,      /* J =  8 */
(PID.TID 0000.0001)                 4.405066064501157E+10,      /* J =  9 */
(PID.TID 0000.0001)                 4.324050931920184E+10,      /* J = 10 */
(PID.TID 0000.0001)                 4.237767609347683E+10,      /* J = 11 */
(PID.TID 0000.0001)                 4.146321219721255E+10,      /* J = 12 */
(PID.TID 0000.0001)                 4.049823176380374E+10,      /* J = 13 */
(PID.TID 0000.0001)                 3.948391047326549E+10,      /* J = 14 */
(PID.TID 0000.0001)                 3.842148411984549E+10,      /* J = 15 */
(PID.TID 0000.0001)                 3.731224710640178E+10       /* J = 16 */
(PID.TID 0000.0001)     ;
(PID.TID 0000.0001) rAs =  /* rAs(:,1,:,1) ( units: m^2 ) */
(PID.TID 0000.0001)    20 @  4.868811950398895E+10              /* I =  1: 20 */
(PID.TID 0000.0001)     ;
(PID.TID 0000.0001) rAs =  /* rAs(1,:,1,:) ( units: m^2 ) */
(PID.TID 0000.0001)                 4.868811950398895E+10,      /* J =  1 */
(PID.TID 0000.0001)                 4.835884682203275E+10,      /* J =  2 */
(PID.TID 0000.0001)                 4.797065633433311E+10,      /* J =  3 */
(PID.TID 0000.0001)                 4.752402099120342E+10,      /* J =  4 */
(PID.TID 0000.0001)                 4.701948494900997E+10,      /* J =  5 */
(PID.TID 0000.0001)                 4.645766290720264E+10,      /* J =  6 */
(PID.TID 0000.0001)                 4.583923935939737E+10,      /* J =  7 */
(PID.TID 0000.0001)                 4.516496775942608E+10,      /* J =  8 */
(PID.TID 0000.0001)                 4.443566960336987E+10,      /* J =  9 */
(PID.TID 0000.0001)                 4.365223342869237E+10,      /* J = 10 */
(PID.TID 0000.0001)                 4.281561373169270E+10,      /* J = 11 */
(PID.TID 0000.0001)                 4.192682980460108E+10,      /* J = 12 */
(PID.TID 0000.0001)                 4.098696449372525E+10,      /* J = 13 */
(PID.TID 0000.0001)                 3.999716288017197E+10,      /* J = 14 */
(PID.TID 0000.0001)                 3.895863088473959E+10,      /* J = 15 */
(PID.TID 0000.0001)                 3.787263379869147E+10       /* J = 16 */
(PID.TID 0000.0001)     ;
(PID.TID 0000.0001) globalArea = /* Integrated horizontal Area (m^2) */
(PID.TID 0000.0001)                 8.853746056302287E+12
(PID.TID 0000.0001)     ;
(PID.TID 0000.0001) // =======================================================
(PID.TID 0000.0001) // End of Model config. summary
(PID.TID 0000.0001) // =======================================================
(PID.TID 0000.0001) 
(PID.TID 0000.0001) == Packages configuration : Check & print summary ==
(PID.TID 0000.0001) 
(PID.TID 0000.0001) GAD_CHECK: #define ALLOW_GENERIC_ADVDIFF
(PID.TID 0000.0001) KPP_CHECK: #define ALLOW_KPP
(PID.TID 0000.0001) GMREDI_CHECK: #define GMREDI
(PID.TID 0000.0001) GM_AdvForm =     /* if FALSE => use SkewFlux Form */
(PID.TID 0000.0001)                   F
(PID.TID 0000.0001)     ;
(PID.TID 0000.0001) GM_InMomAsStress = /* if TRUE => apply as Eddy Stress */
(PID.TID 0000.0001)                   F
(PID.TID 0000.0001)     ;
(PID.TID 0000.0001) GM_AdvSeparate = /* Calc Bolus & Euler Adv. separately */
(PID.TID 0000.0001)                   F
(PID.TID 0000.0001)     ;
(PID.TID 0000.0001) GM_ExtraDiag =   /* Tensor Extra Diag (line 1&2) non 0 */
(PID.TID 0000.0001)                   F
(PID.TID 0000.0001)     ;
(PID.TID 0000.0001) GM_isopycK =    /* Background Isopyc. Diffusivity [m^2/s] */
(PID.TID 0000.0001)                 8.000000000000000E+02
(PID.TID 0000.0001)     ;
(PID.TID 0000.0001) GM_skewflx*K =  /* Background GM_SkewFlx Diffusivity [m^2/s] */
(PID.TID 0000.0001)                 8.000000000000000E+02
(PID.TID 0000.0001)     ;
(PID.TID 0000.0001) GM_advec*K =    /* Backg. GM-Advec(=Bolus) Diffusivity [m^2/s]*/
(PID.TID 0000.0001)                 0.000000000000000E+00
(PID.TID 0000.0001)     ;
(PID.TID 0000.0001) GM_Kmin_horiz = /* Minimum Horizontal Diffusivity [m^2/s] */
(PID.TID 0000.0001)                 0.000000000000000E+00
(PID.TID 0000.0001)     ;
(PID.TID 0000.0001) GM_Visbeck_alpha = /* Visbeck alpha coeff. [-] */
(PID.TID 0000.0001)                 0.000000000000000E+00
(PID.TID 0000.0001)     ;
(PID.TID 0000.0001) GM_Small_Number =  /* epsilon used in slope calc */
(PID.TID 0000.0001)                 9.999999999999999E-21
(PID.TID 0000.0001)     ;
(PID.TID 0000.0001) GM_slopeSqCutoff = /* Slope^2 cut-off value */
(PID.TID 0000.0001)                 1.000000000000000E+48
(PID.TID 0000.0001)     ;
(PID.TID 0000.0001) GM_taper_scheme =  /* Type of Tapering/Clipping scheme */
(PID.TID 0000.0001)               'gkw91                                   '
(PID.TID 0000.0001)     ;
(PID.TID 0000.0001) GM_maxSlope =  /* Maximum Slope (Tapering/Clipping) */
(PID.TID 0000.0001)                 1.000000000000000E-02
(PID.TID 0000.0001)     ;
(PID.TID 0000.0001) GM_facTrL2dz = /* Minimum Trans.Layer Thick. (factor of dz) */
(PID.TID 0000.0001)                 1.000000000000000E+00
(PID.TID 0000.0001)     ;
(PID.TID 0000.0001) GM_facTrL2ML = /* Max.Trans.Layer Thick. (factor of MxL Depth)*/
(PID.TID 0000.0001)                 5.000000000000000E+00
(PID.TID 0000.0001)     ;
(PID.TID 0000.0001) GM_maxTransLay = /* Maximum Transition Layer Thickness [m] */
(PID.TID 0000.0001)                 5.000000000000000E+02
(PID.TID 0000.0001)     ;
(PID.TID 0000.0001) // =======================================================
(PID.TID 0000.0001) // CONFIG_CHECK : Normal End
(PID.TID 0000.0001) // =======================================================
(PID.TID 0000.0001) 
(PID.TID 0000.0001)  MDS_READ_FIELD: opening global file: kf_climtheta
(PID.TID 0000.0001)  MDS_READ_FIELD: opening global file: kf_climsalt
(PID.TID 0000.0001) Start initial hydrostatic pressure computation
(PID.TID 0000.0001) Pressure is predetermined for buoyancyRelation OCEANIC
(PID.TID 0000.0001) 
(PID.TID 0000.0001)  MDS_READ_FIELD: opening global file: kf_tx
(PID.TID 0000.0001)  MDS_READ_FIELD: opening global file: kf_ty
(PID.TID 0000.0001)  MDS_READ_FIELD: opening global file: kf_qnet
(PID.TID 0000.0001)  MDS_READ_FIELD: opening global file: kf_empmr
(PID.TID 0000.0001)  MDS_READ_FIELD: opening global file: kf_sst
(PID.TID 0000.0001)  MDS_READ_FIELD: opening global file: kf_sss
(PID.TID 0000.0001)  MDS_READ_FIELD: opening global file: kf_sw
(PID.TID 0000.0001)  write diagnostics summary to file ioUnit:      6
Iter.Nb:         0 ; Time(s):  2.1600000000000E+04
------------------------------------------------------------------------
2D/3D diagnostics: Number of lists:     1
------------------------------------------------------------------------
listId=    1 ; file name: TRAC01
 nFlds, nActive,       freq     &     phase        , nLev               
    1  |    1  |     10800.000000         0.000000 |  23
 levels:   1   2   3   4   5   6   7   8   9  10  11  12  13  14  15  16  17  18  19  20  21  22  23
 diag# | name   |   ipt  |  iMate | kLev|   count |   mate.C|           
   211 |TRAC01  |      1 |      0 |  23 |       0 |
------------------------------------------------------------------------
Global & Regional Statistics diagnostics: Number of lists:     0
------------------------------------------------------------------------
(PID.TID 0000.0001)  MDS_READ_FIELD: opening global file: kf_climsalt
(PID.TID 0000.0001) // =======================================================
(PID.TID 0000.0001) // Model current state
(PID.TID 0000.0001) // =======================================================
(PID.TID 0000.0001) 
(PID.TID 0000.0001) // =======================================================
(PID.TID 0000.0001) // Begin MONITOR dynamic field statistics
(PID.TID 0000.0001) // =======================================================
(PID.TID 0000.0001) %MON time_tsnumber                =                     0
(PID.TID 0000.0001) %MON time_secondsf                =   2.1600000000000E+04
(PID.TID 0000.0001) %MON dynstat_eta_max              =   0.0000000000000E+00
(PID.TID 0000.0001) %MON dynstat_eta_min              =   0.0000000000000E+00
(PID.TID 0000.0001) %MON dynstat_eta_mean             =   0.0000000000000E+00
(PID.TID 0000.0001) %MON dynstat_eta_sd               =   0.0000000000000E+00
(PID.TID 0000.0001) %MON dynstat_eta_del2             =   0.0000000000000E+00
(PID.TID 0000.0001) %MON dynstat_uvel_max             =   0.0000000000000E+00
(PID.TID 0000.0001) %MON dynstat_uvel_min             =   0.0000000000000E+00
(PID.TID 0000.0001) %MON dynstat_uvel_mean            =   0.0000000000000E+00
(PID.TID 0000.0001) %MON dynstat_uvel_sd              =   0.0000000000000E+00
(PID.TID 0000.0001) %MON dynstat_uvel_del2            =   0.0000000000000E+00
(PID.TID 0000.0001) %MON dynstat_vvel_max             =   0.0000000000000E+00
(PID.TID 0000.0001) %MON dynstat_vvel_min             =   0.0000000000000E+00
(PID.TID 0000.0001) %MON dynstat_vvel_mean            =   0.0000000000000E+00
(PID.TID 0000.0001) %MON dynstat_vvel_sd              =   0.0000000000000E+00
(PID.TID 0000.0001) %MON dynstat_vvel_del2            =   0.0000000000000E+00
(PID.TID 0000.0001) %MON dynstat_wvel_max             =   0.0000000000000E+00
(PID.TID 0000.0001) %MON dynstat_wvel_min             =   0.0000000000000E+00
(PID.TID 0000.0001) %MON dynstat_wvel_mean            =   0.0000000000000E+00
(PID.TID 0000.0001) %MON dynstat_wvel_sd              =   0.0000000000000E+00
(PID.TID 0000.0001) %MON dynstat_wvel_del2            =   0.0000000000000E+00
(PID.TID 0000.0001) %MON dynstat_theta_max            =   2.6077934265137E+01
(PID.TID 0000.0001) %MON dynstat_theta_min            =   1.8064365386963E+00
(PID.TID 0000.0001) %MON dynstat_theta_mean           =   5.4784105600004E+00
(PID.TID 0000.0001) %MON dynstat_theta_sd             =   4.5923951934310E+00
(PID.TID 0000.0001) %MON dynstat_theta_del2           =   5.0898848572070E-02
(PID.TID 0000.0001) %MON dynstat_salt_max             =   3.7401638031006E+01
(PID.TID 0000.0001) %MON dynstat_salt_min             =   3.4726768493652E+01
(PID.TID 0000.0001) %MON dynstat_salt_mean            =   3.5157555715946E+01
(PID.TID 0000.0001) %MON dynstat_salt_sd              =   4.1377404390946E-01
(PID.TID 0000.0001) %MON dynstat_salt_del2            =   1.2632116608019E-02
(PID.TID 0000.0001) %MON extforcing_qnet_max          =   2.5772109985352E+01
(PID.TID 0000.0001) %MON extforcing_qnet_min          =  -1.7793640136719E+02
(PID.TID 0000.0001) %MON extforcing_qnet_mean         =  -8.6225629002468E+01
(PID.TID 0000.0001) %MON extforcing_qnet_sd           =   5.2166051016192E+01
(PID.TID 0000.0001) %MON extforcing_qnet_del2         =   8.3190743582589E+00
(PID.TID 0000.0001) %MON extforcing_qsw_max           =  -1.5340605163574E+02
(PID.TID 0000.0001) %MON extforcing_qsw_min           =  -3.1156558227539E+02
(PID.TID 0000.0001) %MON extforcing_qsw_mean          =  -2.4622679656805E+02
(PID.TID 0000.0001) %MON extforcing_qsw_sd            =   4.1213103000011E+01
(PID.TID 0000.0001) %MON extforcing_qsw_del2          =   6.0288217854617E+00
(PID.TID 0000.0001) %MON extforcing_empmr_max         =   6.3069694468254E-05
(PID.TID 0000.0001) %MON extforcing_empmr_min         =   1.2103353894055E-05
(PID.TID 0000.0001) %MON extforcing_empmr_mean        =   3.6742450533127E-05
(PID.TID 0000.0001) %MON extforcing_empmr_sd          =   1.2117638039994E-05
(PID.TID 0000.0001) %MON extforcing_empmr_del2        =   2.2638034320330E-06
(PID.TID 0000.0001) %MON advcfl_uvel_max              =   0.0000000000000E+00
(PID.TID 0000.0001) %MON advcfl_vvel_max              =   0.0000000000000E+00
(PID.TID 0000.0001) %MON advcfl_wvel_max              =   0.0000000000000E+00
(PID.TID 0000.0001) %MON advcfl_W_hf_max              =   0.0000000000000E+00
(PID.TID 0000.0001) %MON pe_b_mean                    =   0.0000000000000E+00
(PID.TID 0000.0001) %MON ke_max                       =   0.0000000000000E+00
(PID.TID 0000.0001) %MON ke_mean                      =   0.0000000000000E+00
(PID.TID 0000.0001) %MON ke_vol                       =   3.6027486600263E+16
(PID.TID 0000.0001) %MON vort_r_min                   =   0.0000000000000E+00
(PID.TID 0000.0001) %MON vort_r_max                   =   0.0000000000000E+00
(PID.TID 0000.0001) %MON vort_a_mean                  =   6.2114138811198E-05
(PID.TID 0000.0001) %MON vort_a_sd                    =   1.9250279297836E-05
(PID.TID 0000.0001) %MON vort_p_mean                  =   7.8095197769436E-05
(PID.TID 0000.0001) %MON vort_p_sd                    =   5.6519384286071E-05
(PID.TID 0000.0001) %MON surfExpan_theta_mean         =   0.0000000000000E+00
(PID.TID 0000.0001) %MON surfExpan_salt_mean          =   0.0000000000000E+00
(PID.TID 0000.0001) // =======================================================
(PID.TID 0000.0001) // End MONITOR dynamic field statistics
(PID.TID 0000.0001) // =======================================================
(PID.TID 0000.0001) // =======================================================
(PID.TID 0000.0001) // Begin MONITOR ptracer field statistics
(PID.TID 0000.0001) // =======================================================
(PID.TID 0000.0001) %MON trcstat_ptracer01_max        =   3.7401638031006E+01
(PID.TID 0000.0001) %MON trcstat_ptracer01_min        =   3.4726768493652E+01
(PID.TID 0000.0001) %MON trcstat_ptracer01_mean       =   3.5157555715946E+01
(PID.TID 0000.0001) %MON trcstat_ptracer01_sd         =   4.1377404390946E-01
(PID.TID 0000.0001) %MON trcstat_ptracer01_del2       =   1.2632116608019E-02
(PID.TID 0000.0001) // =======================================================
(PID.TID 0000.0001) // End MONITOR ptracers field statistics
(PID.TID 0000.0001) // =======================================================
S/R EXTERNAL_FIELDS_LOAD: Reading new data:    1    2         0  2.160000000000E+04
(PID.TID 0000.0001)  MDS_READ_FIELD: opening global file: kf_tx
(PID.TID 0000.0001)  MDS_READ_FIELD: opening global file: kf_tx
(PID.TID 0000.0001)  MDS_READ_FIELD: opening global file: kf_ty
(PID.TID 0000.0001)  MDS_READ_FIELD: opening global file: kf_ty
(PID.TID 0000.0001)  MDS_READ_FIELD: opening global file: kf_qnet
(PID.TID 0000.0001)  MDS_READ_FIELD: opening global file: kf_qnet
(PID.TID 0000.0001)  MDS_READ_FIELD: opening global file: kf_empmr
(PID.TID 0000.0001)  MDS_READ_FIELD: opening global file: kf_empmr
(PID.TID 0000.0001)  MDS_READ_FIELD: opening global file: kf_sst
(PID.TID 0000.0001)  MDS_READ_FIELD: opening global file: kf_sst
(PID.TID 0000.0001)  MDS_READ_FIELD: opening global file: kf_sss
(PID.TID 0000.0001)  MDS_READ_FIELD: opening global file: kf_sss
(PID.TID 0000.0001)  MDS_READ_FIELD: opening global file: kf_sw
(PID.TID 0000.0001)  MDS_READ_FIELD: opening global file: kf_sw
time,SST,SSS,fu,fv,Q,E-P,i0,i1,a,b =   2.1600E+04  0.0000E+00  0.0000E+00  0.0000E+00  0.0000E+00  0.0000E+00  0.0000E+00     1     2  0.0000E+00  1.0000E+00
time,fu0,fu1,fu =   2.1600E+04  0.0000E+00  0.0000E+00  0.0000E+00  0.000000000000000E+00  1.000000000000000E+00
 cg2d: Sum(rhs),rhsMax =   2.66453525910038E-15  4.50718046056083E-01
(PID.TID 0000.0001)                    cg2d_init_res =    3.97976985192654E+00
(PID.TID 0000.0001)                       cg2d_iters =    50
(PID.TID 0000.0001)                         cg2d_res =    7.13529409038425E-14
(PID.TID 0000.0001) // =======================================================
(PID.TID 0000.0001) // Begin MONITOR dynamic field statistics
(PID.TID 0000.0001) // =======================================================
(PID.TID 0000.0001) %MON time_tsnumber                =                     1
(PID.TID 0000.0001) %MON time_secondsf                =   2.5200000000000E+04
(PID.TID 0000.0001) %MON dynstat_eta_max              =   7.9836760748431E-02
(PID.TID 0000.0001) %MON dynstat_eta_min              =  -1.0327655472326E-01
(PID.TID 0000.0001) %MON dynstat_eta_mean             =  -8.2724517999773E-18
(PID.TID 0000.0001) %MON dynstat_eta_sd               =   3.4052462395130E-02
(PID.TID 0000.0001) %MON dynstat_eta_del2             =   4.0984555727806E-03
(PID.TID 0000.0001) %MON dynstat_uvel_max             =   5.3768174898442E-02
(PID.TID 0000.0001) %MON dynstat_uvel_min             =  -4.2467572873783E-02
(PID.TID 0000.0001) %MON dynstat_uvel_mean            =  -1.7165275679105E-03
(PID.TID 0000.0001) %MON dynstat_uvel_sd              =   1.4723316365923E-03
(PID.TID 0000.0001) %MON dynstat_uvel_del2            =   4.3047781261126E-04
(PID.TID 0000.0001) %MON dynstat_vvel_max             =   1.0125026293478E-02
(PID.TID 0000.0001) %MON dynstat_vvel_min             =  -2.9292158439055E-02
(PID.TID 0000.0001) %MON dynstat_vvel_mean            =  -1.2875957687081E-04
(PID.TID 0000.0001) %MON dynstat_vvel_sd              =   1.6350028540478E-03
(PID.TID 0000.0001) %MON dynstat_vvel_del2            =   5.9224160132065E-04
(PID.TID 0000.0001) %MON dynstat_wvel_max             =   4.7445024309587E-05
(PID.TID 0000.0001) %MON dynstat_wvel_min             =  -9.2452810523346E-05
(PID.TID 0000.0001) %MON dynstat_wvel_mean            =  -1.5756702069268E-21
(PID.TID 0000.0001) %MON dynstat_wvel_sd              =   1.2604002795626E-05
(PID.TID 0000.0001) %MON dynstat_wvel_del2            =   3.1495402146188E-06
(PID.TID 0000.0001) %MON dynstat_theta_max            =   2.6076696687603E+01
(PID.TID 0000.0001) %MON dynstat_theta_min            =   1.8064385538720E+00
(PID.TID 0000.0001) %MON dynstat_theta_mean           =   5.4784296546519E+00
(PID.TID 0000.0001) %MON dynstat_theta_sd             =   4.5924602156105E+00
(PID.TID 0000.0001) %MON dynstat_theta_del2           =   5.0895094847973E-02
(PID.TID 0000.0001) %MON dynstat_salt_max             =   3.7400555976541E+01
(PID.TID 0000.0001) %MON dynstat_salt_min             =   3.4726771285308E+01
(PID.TID 0000.0001) %MON dynstat_salt_mean            =   3.5157556923008E+01
(PID.TID 0000.0001) %MON dynstat_salt_sd              =   4.1377705241412E-01
(PID.TID 0000.0001) %MON dynstat_salt_del2            =   1.2629393696983E-02
(PID.TID 0000.0001) %MON extforcing_qnet_max          =   2.5772109985352E+01
(PID.TID 0000.0001) %MON extforcing_qnet_min          =  -1.7793640136719E+02
(PID.TID 0000.0001) %MON extforcing_qnet_mean         =  -8.6225629002468E+01
(PID.TID 0000.0001) %MON extforcing_qnet_sd           =   5.2166051016192E+01
(PID.TID 0000.0001) %MON extforcing_qnet_del2         =   8.3190743582589E+00
(PID.TID 0000.0001) %MON extforcing_qsw_max           =  -1.5340605163574E+02
(PID.TID 0000.0001) %MON extforcing_qsw_min           =  -3.1156558227539E+02
(PID.TID 0000.0001) %MON extforcing_qsw_mean          =  -2.4622679656805E+02
(PID.TID 0000.0001) %MON extforcing_qsw_sd            =   4.1213103000011E+01
(PID.TID 0000.0001) %MON extforcing_qsw_del2          =   6.0288217854617E+00
(PID.TID 0000.0001) %MON extforcing_empmr_max         =   6.3069694468254E-05
(PID.TID 0000.0001) %MON extforcing_empmr_min         =   1.2103353894055E-05
(PID.TID 0000.0001) %MON extforcing_empmr_mean        =   3.6742450533127E-05
(PID.TID 0000.0001) %MON extforcing_empmr_sd          =   1.2117638039994E-05
(PID.TID 0000.0001) %MON extforcing_empmr_del2        =   2.2638034320330E-06
(PID.TID 0000.0001) %MON advcfl_uvel_max              =   1.1201557325358E-03
(PID.TID 0000.0001) %MON advcfl_vvel_max              =   4.7424971624732E-04
(PID.TID 0000.0001) %MON advcfl_wvel_max              =   2.0655310944651E-02
(PID.TID 0000.0001) %MON advcfl_W_hf_max              =   1.0497648172778E-02
(PID.TID 0000.0001) %MON pe_b_mean                    =   1.3977488762187E-06
(PID.TID 0000.0001) %MON ke_max                       =   9.5722607344461E-04
(PID.TID 0000.0001) %MON ke_mean                      =   3.4842983856617E-06
(PID.TID 0000.0001) %MON ke_vol                       =   3.6027486600263E+16
(PID.TID 0000.0001) %MON vort_r_min                   =  -2.2165902330428E-07
(PID.TID 0000.0001) %MON vort_r_max                   =   2.4532916268556E-07
(PID.TID 0000.0001) %MON vort_a_mean                  =   6.2114138811197E-05
(PID.TID 0000.0001) %MON vort_a_sd                    =   1.9248843146312E-05
(PID.TID 0000.0001) %MON vort_p_mean                  =   7.8095197769435E-05
(PID.TID 0000.0001) %MON vort_p_sd                    =   5.6516399347248E-05
(PID.TID 0000.0001) %MON surfExpan_theta_mean         =   7.5374097421929E-06
(PID.TID 0000.0001) %MON surfExpan_salt_mean          =   2.1195391188768E-06
(PID.TID 0000.0001) // =======================================================
(PID.TID 0000.0001) // End MONITOR dynamic field statistics
(PID.TID 0000.0001) // =======================================================
(PID.TID 0000.0001) // =======================================================
(PID.TID 0000.0001) // Begin MONITOR ptracer field statistics
(PID.TID 0000.0001) // =======================================================
(PID.TID 0000.0001) %MON trcstat_ptracer01_max        =   3.7401638031006E+01
(PID.TID 0000.0001) %MON trcstat_ptracer01_min        =   3.4726768493652E+01
(PID.TID 0000.0001) %MON trcstat_ptracer01_mean       =   3.5157555715946E+01
(PID.TID 0000.0001) %MON trcstat_ptracer01_sd         =   4.1377404390946E-01
(PID.TID 0000.0001) %MON trcstat_ptracer01_del2       =   1.2632116608019E-02
(PID.TID 0000.0001) // =======================================================
(PID.TID 0000.0001) // End MONITOR ptracers field statistics
(PID.TID 0000.0001) // =======================================================
time,SST,SSS,fu,fv,Q,E-P,i0,i1,a,b =   2.5200E+04  0.0000E+00  0.0000E+00  0.0000E+00  0.0000E+00  0.0000E+00  0.0000E+00     1     2  8.3333E-02  9.1667E-01
time,fu0,fu1,fu =   2.5200E+04  0.0000E+00  0.0000E+00  0.0000E+00  8.333333333333333E-02  9.166666666666666E-01
 cg2d: Sum(rhs),rhsMax =  -2.66453525910038E-15  5.55638071966791E-01
(PID.TID 0000.0001)                    cg2d_init_res =    9.18950762575134E-01
(PID.TID 0000.0001)                       cg2d_iters =    47
(PID.TID 0000.0001)                         cg2d_res =    7.10277935309043E-14
(PID.TID 0000.0001) // =======================================================
(PID.TID 0000.0001) // Begin MONITOR dynamic field statistics
(PID.TID 0000.0001) // =======================================================
(PID.TID 0000.0001) %MON time_tsnumber                =                     2
(PID.TID 0000.0001) %MON time_secondsf                =   2.8800000000000E+04
(PID.TID 0000.0001) %MON dynstat_eta_max              =   1.4754643066347E-01
(PID.TID 0000.0001) %MON dynstat_eta_min              =  -1.8210397772541E-01
(PID.TID 0000.0001) %MON dynstat_eta_mean             =   1.9302387533280E-17
(PID.TID 0000.0001) %MON dynstat_eta_sd               =   6.7141364847923E-02
(PID.TID 0000.0001) %MON dynstat_eta_del2             =   4.6952797872148E-03
(PID.TID 0000.0001) %MON dynstat_uvel_max             =   1.0405617026087E-01
(PID.TID 0000.0001) %MON dynstat_uvel_min             =  -7.3230573764907E-02
(PID.TID 0000.0001) %MON dynstat_uvel_mean            =  -2.1357031369869E-03
(PID.TID 0000.0001) %MON dynstat_uvel_sd              =   2.6943964067511E-03
(PID.TID 0000.0001) %MON dynstat_uvel_del2            =   8.2188346770369E-04
(PID.TID 0000.0001) %MON dynstat_vvel_max             =   2.1345634720224E-02
(PID.TID 0000.0001) %MON dynstat_vvel_min             =  -5.3390148912455E-02
(PID.TID 0000.0001) %MON dynstat_vvel_mean            =  -2.0854123984341E-04
(PID.TID 0000.0001) %MON dynstat_vvel_sd              =   2.9912442566150E-03
(PID.TID 0000.0001) %MON dynstat_vvel_del2            =   1.1676382309990E-03
(PID.TID 0000.0001) %MON dynstat_wvel_max             =   7.5980496213647E-05
(PID.TID 0000.0001) %MON dynstat_wvel_min             =  -1.4296313909749E-04
(PID.TID 0000.0001) %MON dynstat_wvel_mean            =  -2.0258616946202E-21
(PID.TID 0000.0001) %MON dynstat_wvel_sd              =   1.9441500671052E-05
(PID.TID 0000.0001) %MON dynstat_wvel_del2            =   4.5240010754188E-06
(PID.TID 0000.0001) %MON dynstat_theta_max            =   2.6075234507400E+01
(PID.TID 0000.0001) %MON dynstat_theta_min            =   1.8064381114613E+00
(PID.TID 0000.0001) %MON dynstat_theta_mean           =   5.4784377072088E+00
(PID.TID 0000.0001) %MON dynstat_theta_sd             =   4.5924870287442E+00
(PID.TID 0000.0001) %MON dynstat_theta_del2           =   5.0847524766719E-02
(PID.TID 0000.0001) %MON dynstat_salt_max             =   3.7400587538128E+01
(PID.TID 0000.0001) %MON dynstat_salt_min             =   3.4726777935629E+01
(PID.TID 0000.0001) %MON dynstat_salt_mean            =   3.5157555145870E+01
(PID.TID 0000.0001) %MON dynstat_salt_sd              =   4.1376961387686E-01
(PID.TID 0000.0001) %MON dynstat_salt_del2            =   1.2629342188533E-02
(PID.TID 0000.0001) %MON extforcing_qnet_max          =   2.6062016805013E+01
(PID.TID 0000.0001) %MON extforcing_qnet_min          =  -1.7659355545044E+02
(PID.TID 0000.0001) %MON extforcing_qnet_mean         =  -8.5257431754752E+01
(PID.TID 0000.0001) %MON extforcing_qnet_sd           =   5.2007111613118E+01
(PID.TID 0000.0001) %MON extforcing_qnet_del2         =   8.2510235180408E+00
(PID.TID 0000.0001) %MON extforcing_qsw_max           =  -1.5255920283000E+02
(PID.TID 0000.0001) %MON extforcing_qsw_min           =  -3.1216041564941E+02
(PID.TID 0000.0001) %MON extforcing_qsw_mean          =  -2.4650639625986E+02
(PID.TID 0000.0001) %MON extforcing_qsw_sd            =   4.1246809110616E+01
(PID.TID 0000.0001) %MON extforcing_qsw_del2          =   5.9979608438677E+00
(PID.TID 0000.0001) %MON extforcing_empmr_max         =   6.3481127135508E-05
(PID.TID 0000.0001) %MON extforcing_empmr_min         =   1.2253066312236E-05
(PID.TID 0000.0001) %MON extforcing_empmr_mean        =   3.7131810081233E-05
(PID.TID 0000.0001) %MON extforcing_empmr_sd          =   1.2044395715904E-05
(PID.TID 0000.0001) %MON extforcing_empmr_del2        =   2.2540989364255E-06
(PID.TID 0000.0001) %MON advcfl_uvel_max              =   2.1678086682987E-03
(PID.TID 0000.0001) %MON advcfl_vvel_max              =   8.6440413822065E-04
(PID.TID 0000.0001) %MON advcfl_wvel_max              =   1.6837446383780E-02
(PID.TID 0000.0001) %MON advcfl_W_hf_max              =   1.0462593013674E-02
(PID.TID 0000.0001) %MON pe_b_mean                    =   5.4339099667312E-06
(PID.TID 0000.0001) %MON ke_max                       =   3.1066853792190E-03
(PID.TID 0000.0001) %MON ke_mean                      =   9.2719879890687E-06
(PID.TID 0000.0001) %MON ke_vol                       =   3.6027486600263E+16
(PID.TID 0000.0001) %MON vort_r_min                   =  -4.1281575235396E-07
(PID.TID 0000.0001) %MON vort_r_max                   =   4.7477923828704E-07
(PID.TID 0000.0001) %MON vort_a_mean                  =   6.2114138811197E-05
(PID.TID 0000.0001) %MON vort_a_sd                    =   1.9248500228950E-05
(PID.TID 0000.0001) %MON vort_p_mean                  =   7.8095197769435E-05
(PID.TID 0000.0001) %MON vort_p_sd                    =   5.6515435653974E-05
(PID.TID 0000.0001) %MON surfExpan_theta_mean         =   9.8573714203757E-06
(PID.TID 0000.0001) %MON surfExpan_salt_mean          =   2.1047023121318E-06
(PID.TID 0000.0001) // =======================================================
(PID.TID 0000.0001) // End MONITOR dynamic field statistics
(PID.TID 0000.0001) // =======================================================
(PID.TID 0000.0001) // =======================================================
(PID.TID 0000.0001) // Begin MONITOR ptracer field statistics
(PID.TID 0000.0001) // =======================================================
(PID.TID 0000.0001) %MON trcstat_ptracer01_max        =   3.7401638031006E+01
(PID.TID 0000.0001) %MON trcstat_ptracer01_min        =   3.4726768493652E+01
(PID.TID 0000.0001) %MON trcstat_ptracer01_mean       =   3.5157555715946E+01
(PID.TID 0000.0001) %MON trcstat_ptracer01_sd         =   4.1377404390946E-01
(PID.TID 0000.0001) %MON trcstat_ptracer01_del2       =   1.2632116608019E-02
(PID.TID 0000.0001) // =======================================================
(PID.TID 0000.0001) // End MONITOR ptracers field statistics
(PID.TID 0000.0001) // =======================================================
time,SST,SSS,fu,fv,Q,E-P,i0,i1,a,b =   2.8800E+04  0.0000E+00  0.0000E+00  0.0000E+00  0.0000E+00  0.0000E+00  0.0000E+00     1     2  1.6667E-01  8.3333E-01
time,fu0,fu1,fu =   2.8800E+04  0.0000E+00  0.0000E+00  0.0000E+00  1.666666666666667E-01  8.333333333333334E-01
 cg2d: Sum(rhs),rhsMax =  -3.55271367880050E-15  5.83615055774427E-01
(PID.TID 0000.0001)                    cg2d_init_res =    5.49850873044932E-01
(PID.TID 0000.0001)                       cg2d_iters =    46
(PID.TID 0000.0001)                         cg2d_res =    7.63507877188786E-14
(PID.TID 0000.0001) // =======================================================
(PID.TID 0000.0001) // Begin MONITOR dynamic field statistics
(PID.TID 0000.0001) // =======================================================
(PID.TID 0000.0001) %MON time_tsnumber                =                     3
(PID.TID 0000.0001) %MON time_secondsf                =   3.2400000000000E+04
(PID.TID 0000.0001) %MON dynstat_eta_max              =   1.8605122461215E-01
(PID.TID 0000.0001) %MON dynstat_eta_min              =  -2.3829841384201E-01
(PID.TID 0000.0001) %MON dynstat_eta_mean             =   1.1029935733303E-17
(PID.TID 0000.0001) %MON dynstat_eta_sd               =   9.1343938541987E-02
(PID.TID 0000.0001) %MON dynstat_eta_del2             =   4.4583104851880E-03
(PID.TID 0000.0001) %MON dynstat_uvel_max             =   1.4685544024382E-01
(PID.TID 0000.0001) %MON dynstat_uvel_min             =  -9.7019107134249E-02
(PID.TID 0000.0001) %MON dynstat_uvel_mean            =  -1.6506776892263E-03
(PID.TID 0000.0001) %MON dynstat_uvel_sd              =   3.7536032688715E-03
(PID.TID 0000.0001) %MON dynstat_uvel_del2            =   1.2102374970724E-03
(PID.TID 0000.0001) %MON dynstat_vvel_max             =   3.1358122150740E-02
(PID.TID 0000.0001) %MON dynstat_vvel_min             =  -7.2659997430319E-02
(PID.TID 0000.0001) %MON dynstat_vvel_mean            =  -4.2511956293421E-04
(PID.TID 0000.0001) %MON dynstat_vvel_sd              =   4.2106357747033E-03
(PID.TID 0000.0001) %MON dynstat_vvel_del2            =   1.6586166685177E-03
(PID.TID 0000.0001) %MON dynstat_wvel_max             =   9.8690672973884E-05
(PID.TID 0000.0001) %MON dynstat_wvel_min             =  -1.7292296352801E-04
(PID.TID 0000.0001) %MON dynstat_wvel_mean            =  -6.7528723154006E-22
(PID.TID 0000.0001) %MON dynstat_wvel_sd              =   2.5191063160284E-05
(PID.TID 0000.0001) %MON dynstat_wvel_del2            =   6.0621167192374E-06
(PID.TID 0000.0001) %MON dynstat_theta_max            =   2.6073674028077E+01
(PID.TID 0000.0001) %MON dynstat_theta_min            =   1.8064381998457E+00
(PID.TID 0000.0001) %MON dynstat_theta_mean           =   5.4784462655888E+00
(PID.TID 0000.0001) %MON dynstat_theta_sd             =   4.5925149081054E+00
(PID.TID 0000.0001) %MON dynstat_theta_del2           =   5.0824274993791E-02
(PID.TID 0000.0001) %MON dynstat_salt_max             =   3.7400772977563E+01
(PID.TID 0000.0001) %MON dynstat_salt_min             =   3.4726783240202E+01
(PID.TID 0000.0001) %MON dynstat_salt_mean            =   3.5157554525612E+01
(PID.TID 0000.0001) %MON dynstat_salt_sd              =   4.1376638118294E-01
(PID.TID 0000.0001) %MON dynstat_salt_del2            =   1.2629561923695E-02
(PID.TID 0000.0001) %MON extforcing_qnet_max          =   2.6353609720866E+01
(PID.TID 0000.0001) %MON extforcing_qnet_min          =  -1.7525070953369E+02
(PID.TID 0000.0001) %MON extforcing_qnet_mean         =  -8.4289234507036E+01
(PID.TID 0000.0001) %MON extforcing_qnet_sd           =   5.1878062558190E+01
(PID.TID 0000.0001) %MON extforcing_qnet_del2         =   8.1954923889711E+00
(PID.TID 0000.0001) %MON extforcing_qsw_max           =  -1.5171235402425E+02
(PID.TID 0000.0001) %MON extforcing_qsw_min           =  -3.1275524902344E+02
(PID.TID 0000.0001) %MON extforcing_qsw_mean          =  -2.4678599595167E+02
(PID.TID 0000.0001) %MON extforcing_qsw_sd            =   4.1303728041958E+01
(PID.TID 0000.0001) %MON extforcing_qsw_del2          =   5.9685850973395E+00
(PID.TID 0000.0001) %MON extforcing_empmr_max         =   6.3953881584903E-05
(PID.TID 0000.0001) %MON extforcing_empmr_min         =   1.2402778730417E-05
(PID.TID 0000.0001) %MON extforcing_empmr_mean        =   3.7521169629339E-05
(PID.TID 0000.0001) %MON extforcing_empmr_sd          =   1.1981030382910E-05
(PID.TID 0000.0001) %MON extforcing_empmr_del2        =   2.2503087950644E-06
(PID.TID 0000.0001) %MON advcfl_uvel_max              =   3.0594485223629E-03
(PID.TID 0000.0001) %MON advcfl_vvel_max              =   1.1763893478712E-03
(PID.TID 0000.0001) %MON advcfl_wvel_max              =   1.4123369523245E-02
(PID.TID 0000.0001) %MON advcfl_W_hf_max              =   9.9388905861216E-03
(PID.TID 0000.0001) %MON pe_b_mean                    =   1.0057535511660E-05
(PID.TID 0000.0001) %MON ke_max                       =   6.2881470749173E-03
(PID.TID 0000.0001) %MON ke_mean                      =   1.5438063909086E-05
(PID.TID 0000.0001) %MON ke_vol                       =   3.6027486600263E+16
(PID.TID 0000.0001) %MON vort_r_min                   =  -5.5087144207269E-07
(PID.TID 0000.0001) %MON vort_r_max                   =   6.7006035185099E-07
(PID.TID 0000.0001) %MON vort_a_mean                  =   6.2114138811197E-05
(PID.TID 0000.0001) %MON vort_a_sd                    =   1.9248914410804E-05
(PID.TID 0000.0001) %MON vort_p_mean                  =   7.8095197769435E-05
(PID.TID 0000.0001) %MON vort_p_sd                    =   5.6516127434436E-05
(PID.TID 0000.0001) %MON surfExpan_theta_mean         =   9.4524775579202E-06
(PID.TID 0000.0001) %MON surfExpan_salt_mean          =   1.1900585893824E-06
(PID.TID 0000.0001) // =======================================================
(PID.TID 0000.0001) // End MONITOR dynamic field statistics
(PID.TID 0000.0001) // =======================================================
(PID.TID 0000.0001) // =======================================================
(PID.TID 0000.0001) // Begin MONITOR ptracer field statistics
(PID.TID 0000.0001) // =======================================================
(PID.TID 0000.0001) %MON trcstat_ptracer01_max        =   3.7400370955203E+01
(PID.TID 0000.0001) %MON trcstat_ptracer01_min        =   3.4726781755807E+01
(PID.TID 0000.0001) %MON trcstat_ptracer01_mean       =   3.5157551976247E+01
(PID.TID 0000.0001) %MON trcstat_ptracer01_sd         =   4.1375914670924E-01
(PID.TID 0000.0001) %MON trcstat_ptracer01_del2       =   1.2629246355126E-02
(PID.TID 0000.0001) // =======================================================
(PID.TID 0000.0001) // End MONITOR ptracers field statistics
(PID.TID 0000.0001) // =======================================================
 Computing Diagnostic #    211  TRAC01       Counter:       1   Parms: SM P    MR      
time,SST,SSS,fu,fv,Q,E-P,i0,i1,a,b =   3.2400E+04  0.0000E+00  0.0000E+00  0.0000E+00  0.0000E+00  0.0000E+00  0.0000E+00     1     2  2.5000E-01  7.5000E-01
time,fu0,fu1,fu =   3.2400E+04  0.0000E+00  0.0000E+00  0.0000E+00  2.500000000000000E-01  7.500000000000000E-01
 cg2d: Sum(rhs),rhsMax =  -8.88178419700125E-16  6.07279873512137E-01
(PID.TID 0000.0001)                    cg2d_init_res =    2.97260432292989E-01
(PID.TID 0000.0001)                       cg2d_iters =    47
(PID.TID 0000.0001)                         cg2d_res =    5.05224033572676E-14
(PID.TID 0000.0001) // =======================================================
(PID.TID 0000.0001) // Begin MONITOR dynamic field statistics
(PID.TID 0000.0001) // =======================================================
(PID.TID 0000.0001) %MON time_tsnumber                =                     4
(PID.TID 0000.0001) %MON time_secondsf                =   3.6000000000000E+04
(PID.TID 0000.0001) %MON dynstat_eta_max              =   1.9637747387208E-01
(PID.TID 0000.0001) %MON dynstat_eta_min              =  -2.7137542271649E-01
(PID.TID 0000.0001) %MON dynstat_eta_mean             =   6.0664646533167E-17
(PID.TID 0000.0001) %MON dynstat_eta_sd               =   1.0332768056179E-01
(PID.TID 0000.0001) %MON dynstat_eta_del2             =   4.4234768491804E-03
(PID.TID 0000.0001) %MON dynstat_uvel_max             =   1.7703798226162E-01
(PID.TID 0000.0001) %MON dynstat_uvel_min             =  -1.1630260739331E-01
(PID.TID 0000.0001) %MON dynstat_uvel_mean            =  -8.1552427345846E-04
(PID.TID 0000.0001) %MON dynstat_uvel_sd              =   4.7722178755007E-03
(PID.TID 0000.0001) %MON dynstat_uvel_del2            =   1.5993574963107E-03
(PID.TID 0000.0001) %MON dynstat_vvel_max             =   3.9434941424406E-02
(PID.TID 0000.0001) %MON dynstat_vvel_min             =  -9.2477067748079E-02
(PID.TID 0000.0001) %MON dynstat_vvel_mean            =  -6.6475666715350E-04
(PID.TID 0000.0001) %MON dynstat_vvel_sd              =   5.2311949897574E-03
(PID.TID 0000.0001) %MON dynstat_vvel_del2            =   2.0492626664112E-03
(PID.TID 0000.0001) %MON dynstat_wvel_max             =   1.1361553599462E-04
(PID.TID 0000.0001) %MON dynstat_wvel_min             =  -1.8434669096816E-04
(PID.TID 0000.0001) %MON dynstat_wvel_mean            =  -4.5019148769337E-22
(PID.TID 0000.0001) %MON dynstat_wvel_sd              =   2.9975506065429E-05
(PID.TID 0000.0001) %MON dynstat_wvel_del2            =   7.3541138786464E-06
(PID.TID 0000.0001) %MON dynstat_theta_max            =   2.6072018211603E+01
(PID.TID 0000.0001) %MON dynstat_theta_min            =   1.8064387917950E+00
(PID.TID 0000.0001) %MON dynstat_theta_mean           =   5.4784564128103E+00
(PID.TID 0000.0001) %MON dynstat_theta_sd             =   4.5925476614297E+00
(PID.TID 0000.0001) %MON dynstat_theta_del2           =   5.0795070051588E-02
(PID.TID 0000.0001) %MON dynstat_salt_max             =   3.7401004772339E+01
(PID.TID 0000.0001) %MON dynstat_salt_min             =   3.4726787698114E+01
(PID.TID 0000.0001) %MON dynstat_salt_mean            =   3.5157555202498E+01
(PID.TID 0000.0001) %MON dynstat_salt_sd              =   4.1376758767169E-01
(PID.TID 0000.0001) %MON dynstat_salt_del2            =   1.2629509806922E-02
(PID.TID 0000.0001) %MON extforcing_qnet_max          =   2.7849277496338E+01
(PID.TID 0000.0001) %MON extforcing_qnet_min          =  -1.7390786361694E+02
(PID.TID 0000.0001) %MON extforcing_qnet_mean         =  -8.3321037259321E+01
(PID.TID 0000.0001) %MON extforcing_qnet_sd           =   5.1779127338922E+01
(PID.TID 0000.0001) %MON extforcing_qnet_del2         =   8.1563966591370E+00
(PID.TID 0000.0001) %MON extforcing_qsw_max           =  -1.5086550521851E+02
(PID.TID 0000.0001) %MON extforcing_qsw_min           =  -3.1335008239746E+02
(PID.TID 0000.0001) %MON extforcing_qsw_mean          =  -2.4706559564349E+02
(PID.TID 0000.0001) %MON extforcing_qsw_sd            =   4.1383764013908E+01
(PID.TID 0000.0001) %MON extforcing_qsw_del2          =   5.9498440314984E+00
(PID.TID 0000.0001) %MON extforcing_empmr_max         =   6.4426636034298E-05
(PID.TID 0000.0001) %MON extforcing_empmr_min         =   1.2552491148599E-05
(PID.TID 0000.0001) %MON extforcing_empmr_mean        =   3.7910529177446E-05
(PID.TID 0000.0001) %MON extforcing_empmr_sd          =   1.1927699455179E-05
(PID.TID 0000.0001) %MON extforcing_empmr_del2        =   2.2496353002382E-06
(PID.TID 0000.0001) %MON advcfl_uvel_max              =   3.6882432978524E-03
(PID.TID 0000.0001) %MON advcfl_vvel_max              =   1.4972342591332E-03
(PID.TID 0000.0001) %MON advcfl_wvel_max              =   8.8123047970212E-03
(PID.TID 0000.0001) %MON advcfl_W_hf_max              =   7.0568829182076E-03
(PID.TID 0000.0001) %MON pe_b_mean                    =   1.2869612457116E-05
(PID.TID 0000.0001) %MON ke_max                       =   9.3653547551147E-03
(PID.TID 0000.0001) %MON ke_mean                      =   2.2768377544839E-05
(PID.TID 0000.0001) %MON ke_vol                       =   3.6027486600263E+16
(PID.TID 0000.0001) %MON vort_r_min                   =  -6.3165543515334E-07
(PID.TID 0000.0001) %MON vort_r_max                   =   8.0777486001378E-07
(PID.TID 0000.0001) %MON vort_a_mean                  =   6.2114138811197E-05
(PID.TID 0000.0001) %MON vort_a_sd                    =   1.9249620605860E-05
(PID.TID 0000.0001) %MON vort_p_mean                  =   7.8095197769435E-05
(PID.TID 0000.0001) %MON vort_p_sd                    =   5.6517667104300E-05
(PID.TID 0000.0001) %MON surfExpan_theta_mean         =   7.8286859836392E-06
(PID.TID 0000.0001) %MON surfExpan_salt_mean          =   2.1564229701866E-07
(PID.TID 0000.0001) // =======================================================
(PID.TID 0000.0001) // End MONITOR dynamic field statistics
(PID.TID 0000.0001) // =======================================================
(PID.TID 0000.0001) // =======================================================
(PID.TID 0000.0001) // Begin MONITOR ptracer field statistics
(PID.TID 0000.0001) // =======================================================
(PID.TID 0000.0001) %MON trcstat_ptracer01_max        =   3.7400370955203E+01
(PID.TID 0000.0001) %MON trcstat_ptracer01_min        =   3.4726781755807E+01
(PID.TID 0000.0001) %MON trcstat_ptracer01_mean       =   3.5157551976247E+01
(PID.TID 0000.0001) %MON trcstat_ptracer01_sd         =   4.1375914670924E-01
(PID.TID 0000.0001) %MON trcstat_ptracer01_del2       =   1.2629246355126E-02
(PID.TID 0000.0001) // =======================================================
(PID.TID 0000.0001) // End MONITOR ptracers field statistics
(PID.TID 0000.0001) // =======================================================
time,SST,SSS,fu,fv,Q,E-P,i0,i1,a,b =   3.6000E+04  0.0000E+00  0.0000E+00  0.0000E+00  0.0000E+00  0.0000E+00  0.0000E+00     1     2  3.3333E-01  6.6667E-01
time,fu0,fu1,fu =   3.6000E+04  0.0000E+00  0.0000E+00  0.0000E+00  3.333333333333333E-01  6.666666666666667E-01
 cg2d: Sum(rhs),rhsMax =  -5.32907051820075E-15  6.21371774062447E-01
(PID.TID 0000.0001)                    cg2d_init_res =    2.45976305367916E-01
(PID.TID 0000.0001)                       cg2d_iters =    47
(PID.TID 0000.0001)                         cg2d_res =    3.92614125419387E-14
(PID.TID 0000.0001) // =======================================================
(PID.TID 0000.0001) // Begin MONITOR dynamic field statistics
(PID.TID 0000.0001) // =======================================================
(PID.TID 0000.0001) %MON time_tsnumber                =                     5
(PID.TID 0000.0001) %MON time_secondsf                =   3.9600000000000E+04
(PID.TID 0000.0001) %MON dynstat_eta_max              =   1.8817753310417E-01
(PID.TID 0000.0001) %MON dynstat_eta_min              =  -2.8338924631782E-01
(PID.TID 0000.0001) %MON dynstat_eta_mean             =  -2.7574839333258E-17
(PID.TID 0000.0001) %MON dynstat_eta_sd               =   1.0495357767687E-01
(PID.TID 0000.0001) %MON dynstat_eta_del2             =   4.5227313506137E-03
(PID.TID 0000.0001) %MON dynstat_uvel_max             =   1.7830753854719E-01
(PID.TID 0000.0001) %MON dynstat_uvel_min             =  -1.3307098720603E-01
(PID.TID 0000.0001) %MON dynstat_uvel_mean            =  -5.2659897354953E-05
(PID.TID 0000.0001) %MON dynstat_uvel_sd              =   5.7615433456597E-03
(PID.TID 0000.0001) %MON dynstat_uvel_del2            =   1.9812960809817E-03
(PID.TID 0000.0001) %MON dynstat_vvel_max             =   4.5019031903048E-02
(PID.TID 0000.0001) %MON dynstat_vvel_min             =  -1.1025028857980E-01
(PID.TID 0000.0001) %MON dynstat_vvel_mean            =  -7.6771583410094E-04
(PID.TID 0000.0001) %MON dynstat_vvel_sd              =   6.0243656149866E-03
(PID.TID 0000.0001) %MON dynstat_vvel_del2            =   2.3231738429623E-03
(PID.TID 0000.0001) %MON dynstat_wvel_max             =   1.1981300451166E-04
(PID.TID 0000.0001) %MON dynstat_wvel_min             =  -1.7806144535962E-04
(PID.TID 0000.0001) %MON dynstat_wvel_mean            =  -2.2509574384669E-22
(PID.TID 0000.0001) %MON dynstat_wvel_sd              =   3.3496152425450E-05
(PID.TID 0000.0001) %MON dynstat_wvel_del2            =   8.2369418675305E-06
(PID.TID 0000.0001) %MON dynstat_theta_max            =   2.6070338336351E+01
(PID.TID 0000.0001) %MON dynstat_theta_min            =   1.8064399501003E+00
(PID.TID 0000.0001) %MON dynstat_theta_mean           =   5.4784684290126E+00
(PID.TID 0000.0001) %MON dynstat_theta_sd             =   4.5925865576894E+00
(PID.TID 0000.0001) %MON dynstat_theta_del2           =   5.0764752521222E-02
(PID.TID 0000.0001) %MON dynstat_salt_max             =   3.7401328021012E+01
(PID.TID 0000.0001) %MON dynstat_salt_min             =   3.4726790802559E+01
(PID.TID 0000.0001) %MON dynstat_salt_mean            =   3.5157556783524E+01
(PID.TID 0000.0001) %MON dynstat_salt_sd              =   4.1377158870742E-01
(PID.TID 0000.0001) %MON dynstat_salt_del2            =   1.2629522091670E-02
(PID.TID 0000.0001) %MON extforcing_qnet_max          =   2.9530278523763E+01
(PID.TID 0000.0001) %MON extforcing_qnet_min          =  -1.7256501770020E+02
(PID.TID 0000.0001) %MON extforcing_qnet_mean         =  -8.2352840011605E+01
(PID.TID 0000.0001) %MON extforcing_qnet_sd           =   5.1710478801745E+01
(PID.TID 0000.0001) %MON extforcing_qnet_del2         =   8.1218630723374E+00
(PID.TID 0000.0001) %MON extforcing_qsw_max           =  -1.5001865641276E+02
(PID.TID 0000.0001) %MON extforcing_qsw_min           =  -3.1394491577148E+02
(PID.TID 0000.0001) %MON extforcing_qsw_mean          =  -2.4734519533530E+02
(PID.TID 0000.0001) %MON extforcing_qsw_sd            =   4.1486783235049E+01
(PID.TID 0000.0001) %MON extforcing_qsw_del2          =   5.9332652099810E+00
(PID.TID 0000.0001) %MON extforcing_empmr_max         =   6.4899390483693E-05
(PID.TID 0000.0001) %MON extforcing_empmr_min         =   1.2702203566780E-05
(PID.TID 0000.0001) %MON extforcing_empmr_mean        =   3.8299888725552E-05
(PID.TID 0000.0001) %MON extforcing_empmr_sd          =   1.1884538019288E-05
(PID.TID 0000.0001) %MON extforcing_empmr_del2        =   2.2496460070999E-06
(PID.TID 0000.0001) %MON advcfl_uvel_max              =   3.7146920429278E-03
(PID.TID 0000.0001) %MON advcfl_vvel_max              =   1.7849885724175E-03
(PID.TID 0000.0001) %MON advcfl_wvel_max              =   4.3144432010495E-03
(PID.TID 0000.0001) %MON advcfl_W_hf_max              =   4.0489172175609E-03
(PID.TID 0000.0001) %MON pe_b_mean                    =   1.3277814675744E-05
(PID.TID 0000.0001) %MON ke_max                       =   1.0036926189208E-02
(PID.TID 0000.0001) %MON ke_mean                      =   3.1148820980233E-05
(PID.TID 0000.0001) %MON ke_vol                       =   3.6027486600263E+16
(PID.TID 0000.0001) %MON vort_r_min                   =  -6.0186560461154E-07
(PID.TID 0000.0001) %MON vort_r_max                   =   8.1356749071231E-07
(PID.TID 0000.0001) %MON vort_a_mean                  =   6.2114138811197E-05
(PID.TID 0000.0001) %MON vort_a_sd                    =   1.9250263781665E-05
(PID.TID 0000.0001) %MON vort_p_mean                  =   7.8095197769436E-05
(PID.TID 0000.0001) %MON vort_p_sd                    =   5.6519349755490E-05
(PID.TID 0000.0001) %MON surfExpan_theta_mean         =   5.5648602773902E-06
(PID.TID 0000.0001) %MON surfExpan_salt_mean          =  -4.7662344098534E-07
(PID.TID 0000.0001) // =======================================================
(PID.TID 0000.0001) // End MONITOR dynamic field statistics
(PID.TID 0000.0001) // =======================================================
(PID.TID 0000.0001) // =======================================================
(PID.TID 0000.0001) // Begin MONITOR ptracer field statistics
(PID.TID 0000.0001) // =======================================================
(PID.TID 0000.0001) %MON trcstat_ptracer01_max        =   3.7400370955203E+01
(PID.TID 0000.0001) %MON trcstat_ptracer01_min        =   3.4726781755807E+01
(PID.TID 0000.0001) %MON trcstat_ptracer01_mean       =   3.5157551976247E+01
(PID.TID 0000.0001) %MON trcstat_ptracer01_sd         =   4.1375914670924E-01
(PID.TID 0000.0001) %MON trcstat_ptracer01_del2       =   1.2629246355126E-02
(PID.TID 0000.0001) // =======================================================
(PID.TID 0000.0001) // End MONITOR ptracers field statistics
(PID.TID 0000.0001) // =======================================================
time,SST,SSS,fu,fv,Q,E-P,i0,i1,a,b =   3.9600E+04  0.0000E+00  0.0000E+00  0.0000E+00  0.0000E+00  0.0000E+00  0.0000E+00     1     2  4.1667E-01  5.8333E-01
time,fu0,fu1,fu =   3.9600E+04  0.0000E+00  0.0000E+00  0.0000E+00  4.166666666666667E-01  5.833333333333333E-01
 cg2d: Sum(rhs),rhsMax =   7.10542735760100E-15  6.21926058891544E-01
(PID.TID 0000.0001)                    cg2d_init_res =    2.81397250028386E-01
(PID.TID 0000.0001)                       cg2d_iters =    47
(PID.TID 0000.0001)                         cg2d_res =    4.15756296311058E-14
(PID.TID 0000.0001) // =======================================================
(PID.TID 0000.0001) // Begin MONITOR dynamic field statistics
(PID.TID 0000.0001) // =======================================================
(PID.TID 0000.0001) %MON time_tsnumber                =                     6
(PID.TID 0000.0001) %MON time_secondsf                =   4.3200000000000E+04
(PID.TID 0000.0001) %MON dynstat_eta_max              =   1.8442540312248E-01
(PID.TID 0000.0001) %MON dynstat_eta_min              =  -2.7979388354041E-01
(PID.TID 0000.0001) %MON dynstat_eta_mean             =   0.0000000000000E+00
(PID.TID 0000.0001) %MON dynstat_eta_sd               =   1.0065656879322E-01
(PID.TID 0000.0001) %MON dynstat_eta_del2             =   4.5963648222594E-03
(PID.TID 0000.0001) %MON dynstat_uvel_max             =   1.6407874198654E-01
(PID.TID 0000.0001) %MON dynstat_uvel_min             =  -1.4806747565293E-01
(PID.TID 0000.0001) %MON dynstat_uvel_mean            =   4.2988267873719E-04
(PID.TID 0000.0001) %MON dynstat_uvel_sd              =   6.6890921151685E-03
(PID.TID 0000.0001) %MON dynstat_uvel_del2            =   2.3478606244717E-03
(PID.TID 0000.0001) %MON dynstat_vvel_max             =   4.7918850776414E-02
(PID.TID 0000.0001) %MON dynstat_vvel_min             =  -1.2216188539237E-01
(PID.TID 0000.0001) %MON dynstat_vvel_mean            =  -6.6099645345499E-04
(PID.TID 0000.0001) %MON dynstat_vvel_sd              =   6.5936200881347E-03
(PID.TID 0000.0001) %MON dynstat_vvel_del2            =   2.4721521494158E-03
(PID.TID 0000.0001) %MON dynstat_wvel_max             =   1.3274749428035E-04
(PID.TID 0000.0001) %MON dynstat_wvel_min             =  -1.5682363129376E-04
(PID.TID 0000.0001) %MON dynstat_wvel_mean            =  -4.6425997168379E-22
(PID.TID 0000.0001) %MON dynstat_wvel_sd              =   3.5611423008922E-05
(PID.TID 0000.0001) %MON dynstat_wvel_del2            =   8.6853829937354E-06
(PID.TID 0000.0001) %MON dynstat_theta_max            =   2.6075207960909E+01
(PID.TID 0000.0001) %MON dynstat_theta_min            =   1.8064415425733E+00
(PID.TID 0000.0001) %MON dynstat_theta_mean           =   5.4784825747478E+00
(PID.TID 0000.0001) %MON dynstat_theta_sd             =   4.5926328587099E+00
(PID.TID 0000.0001) %MON dynstat_theta_del2           =   5.0737824327060E-02
(PID.TID 0000.0001) %MON dynstat_salt_max             =   3.7401567428918E+01
(PID.TID 0000.0001) %MON dynstat_salt_min             =   3.4726792441197E+01
(PID.TID 0000.0001) %MON dynstat_salt_mean            =   3.5157558837607E+01
(PID.TID 0000.0001) %MON dynstat_salt_sd              =   4.1377698764231E-01
(PID.TID 0000.0001) %MON dynstat_salt_del2            =   1.2629469626552E-02
(PID.TID 0000.0001) %MON extforcing_qnet_max          =   3.2348238627116E+01
(PID.TID 0000.0001) %MON extforcing_qnet_min          =  -1.7122217178345E+02
(PID.TID 0000.0001) %MON extforcing_qnet_mean         =  -8.1384642763889E+01
(PID.TID 0000.0001) %MON extforcing_qnet_sd           =   5.1672237657836E+01
(PID.TID 0000.0001) %MON extforcing_qnet_del2         =   8.1030238077950E+00
(PID.TID 0000.0001) %MON extforcing_qsw_max           =  -1.4917180760701E+02
(PID.TID 0000.0001) %MON extforcing_qsw_min           =  -3.1453974914551E+02
(PID.TID 0000.0001) %MON extforcing_qsw_mean          =  -2.4762479502712E+02
(PID.TID 0000.0001) %MON extforcing_qsw_sd            =   4.1612615008714E+01
(PID.TID 0000.0001) %MON extforcing_qsw_del2          =   5.9226507240133E+00
(PID.TID 0000.0001) %MON extforcing_empmr_max         =   6.5372144933088E-05
(PID.TID 0000.0001) %MON extforcing_empmr_min         =   1.2851915984961E-05
(PID.TID 0000.0001) %MON extforcing_empmr_mean        =   3.8689248273659E-05
(PID.TID 0000.0001) %MON extforcing_empmr_sd          =   1.1851657181705E-05
(PID.TID 0000.0001) %MON extforcing_empmr_del2        =   2.2510213879891E-06
(PID.TID 0000.0001) %MON advcfl_uvel_max              =   3.4182626390173E-03
(PID.TID 0000.0001) %MON advcfl_vvel_max              =   1.9778412575540E-03
(PID.TID 0000.0001) %MON advcfl_wvel_max              =   6.3667014044574E-03
(PID.TID 0000.0001) %MON advcfl_W_hf_max              =   4.4602302644687E-03
(PID.TID 0000.0001) %MON pe_b_mean                    =   1.2212831120464E-05
(PID.TID 0000.0001) %MON ke_max                       =   1.0946151760769E-02
(PID.TID 0000.0001) %MON ke_mean                      =   3.9518883044614E-05
(PID.TID 0000.0001) %MON ke_vol                       =   3.6027486600263E+16
(PID.TID 0000.0001) %MON vort_r_min                   =  -5.2060691104123E-07
(PID.TID 0000.0001) %MON vort_r_max                   =   7.4864546661830E-07
(PID.TID 0000.0001) %MON vort_a_mean                  =   6.2114138811197E-05
(PID.TID 0000.0001) %MON vort_a_sd                    =   1.9250668687395E-05
(PID.TID 0000.0001) %MON vort_p_mean                  =   7.8095197769435E-05
(PID.TID 0000.0001) %MON vort_p_sd                    =   5.6520715590865E-05
(PID.TID 0000.0001) %MON surfExpan_theta_mean         =   2.9388214226813E-06
(PID.TID 0000.0001) %MON surfExpan_salt_mean          =  -7.8966685688341E-07
(PID.TID 0000.0001) // =======================================================
(PID.TID 0000.0001) // End MONITOR dynamic field statistics
(PID.TID 0000.0001) // =======================================================
(PID.TID 0000.0001) // =======================================================
(PID.TID 0000.0001) // Begin MONITOR ptracer field statistics
(PID.TID 0000.0001) // =======================================================
(PID.TID 0000.0001) %MON trcstat_ptracer01_max        =   3.7400525813270E+01
(PID.TID 0000.0001) %MON trcstat_ptracer01_min        =   3.4726791254699E+01
(PID.TID 0000.0001) %MON trcstat_ptracer01_mean       =   3.5157552913267E+01
(PID.TID 0000.0001) %MON trcstat_ptracer01_sd         =   4.1375957058054E-01
(PID.TID 0000.0001) %MON trcstat_ptracer01_del2       =   1.2630988174377E-02
(PID.TID 0000.0001) // =======================================================
(PID.TID 0000.0001) // End MONITOR ptracers field statistics
(PID.TID 0000.0001) // =======================================================
 Computing Diagnostic #    211  TRAC01       Counter:       1   Parms: SM P    MR      
time,SST,SSS,fu,fv,Q,E-P,i0,i1,a,b =   4.3200E+04  0.0000E+00  0.0000E+00  0.0000E+00  0.0000E+00  0.0000E+00  0.0000E+00     1     2  5.0000E-01  5.0000E-01
time,fu0,fu1,fu =   4.3200E+04  0.0000E+00  0.0000E+00  0.0000E+00  5.000000000000000E-01  5.000000000000000E-01
 cg2d: Sum(rhs),rhsMax =   3.55271367880050E-15  6.11396071760784E-01
(PID.TID 0000.0001)                    cg2d_init_res =    2.63343777742171E-01
(PID.TID 0000.0001)                       cg2d_iters =    47
(PID.TID 0000.0001)                         cg2d_res =    4.30393174784924E-14
(PID.TID 0000.0001) // =======================================================
(PID.TID 0000.0001) // Begin MONITOR dynamic field statistics
(PID.TID 0000.0001) // =======================================================
(PID.TID 0000.0001) %MON time_tsnumber                =                     7
(PID.TID 0000.0001) %MON time_secondsf                =   4.6800000000000E+04
(PID.TID 0000.0001) %MON dynstat_eta_max              =   1.7629651377509E-01
(PID.TID 0000.0001) %MON dynstat_eta_min              =  -2.6859576345194E-01
(PID.TID 0000.0001) %MON dynstat_eta_mean             =   1.6544903599955E-17
(PID.TID 0000.0001) %MON dynstat_eta_sd               =   9.4070371261844E-02
(PID.TID 0000.0001) %MON dynstat_eta_del2             =   4.6248026309568E-03
(PID.TID 0000.0001) %MON dynstat_uvel_max             =   1.4393951199250E-01
(PID.TID 0000.0001) %MON dynstat_uvel_min             =  -1.6143751012051E-01
(PID.TID 0000.0001) %MON dynstat_uvel_mean            =   6.0842057092355E-04
(PID.TID 0000.0001) %MON dynstat_uvel_sd              =   7.5139344519427E-03
(PID.TID 0000.0001) %MON dynstat_uvel_del2            =   2.6834027776257E-03
(PID.TID 0000.0001) %MON dynstat_vvel_max             =   5.0453165020864E-02
(PID.TID 0000.0001) %MON dynstat_vvel_min             =  -1.2746155333206E-01
(PID.TID 0000.0001) %MON dynstat_vvel_mean            =  -3.8131854608270E-04
(PID.TID 0000.0001) %MON dynstat_vvel_sd              =   6.9650718075044E-03
(PID.TID 0000.0001) %MON dynstat_vvel_del2            =   2.5066601059075E-03
(PID.TID 0000.0001) %MON dynstat_wvel_max             =   1.3800223711648E-04
(PID.TID 0000.0001) %MON dynstat_wvel_min             =  -1.5764610310877E-04
(PID.TID 0000.0001) %MON dynstat_wvel_mean            =   1.0129308473101E-21
(PID.TID 0000.0001) %MON dynstat_wvel_sd              =   3.6401421336896E-05
(PID.TID 0000.0001) %MON dynstat_wvel_del2            =   8.6946052817016E-06
(PID.TID 0000.0001) %MON dynstat_theta_max            =   2.6081903901442E+01
(PID.TID 0000.0001) %MON dynstat_theta_min            =   1.8064433336424E+00
(PID.TID 0000.0001) %MON dynstat_theta_mean           =   5.4784990234956E+00
(PID.TID 0000.0001) %MON dynstat_theta_sd             =   4.5926874805232E+00
(PID.TID 0000.0001) %MON dynstat_theta_del2           =   5.0720146430011E-02
(PID.TID 0000.0001) %MON dynstat_salt_max             =   3.7401887772818E+01
(PID.TID 0000.0001) %MON dynstat_salt_min             =   3.4726793029548E+01
(PID.TID 0000.0001) %MON dynstat_salt_mean            =   3.5157560977812E+01
(PID.TID 0000.0001) %MON dynstat_salt_sd              =   4.1378272138059E-01
(PID.TID 0000.0001) %MON dynstat_salt_del2            =   1.2630103411004E-02
(PID.TID 0000.0001) %MON extforcing_qnet_max          =   3.5166198730469E+01
(PID.TID 0000.0001) %MON extforcing_qnet_min          =  -1.6987932586670E+02
(PID.TID 0000.0001) %MON extforcing_qnet_mean         =  -8.0416445516173E+01
(PID.TID 0000.0001) %MON extforcing_qnet_sd           =   5.1664471428311E+01
(PID.TID 0000.0001) %MON extforcing_qnet_del2         =   8.0872703890495E+00
(PID.TID 0000.0001) %MON extforcing_qsw_max           =  -1.4832495880127E+02
(PID.TID 0000.0001) %MON extforcing_qsw_min           =  -3.1513458251953E+02
(PID.TID 0000.0001) %MON extforcing_qsw_mean          =  -2.4790439471893E+02
(PID.TID 0000.0001) %MON extforcing_qsw_sd            =   4.1761053123375E+01
(PID.TID 0000.0001) %MON extforcing_qsw_del2          =   5.9130193400266E+00
(PID.TID 0000.0001) %MON extforcing_empmr_max         =   6.5844899382483E-05
(PID.TID 0000.0001) %MON extforcing_empmr_min         =   1.3001628403142E-05
(PID.TID 0000.0001) %MON extforcing_empmr_mean        =   3.9078607821765E-05
(PID.TID 0000.0001) %MON extforcing_empmr_sd          =   1.1829142672036E-05
(PID.TID 0000.0001) %MON extforcing_empmr_del2        =   2.2531052097796E-06
(PID.TID 0000.0001) %MON advcfl_uvel_max              =   2.9987008077055E-03
(PID.TID 0000.0001) %MON advcfl_vvel_max              =   2.0636446312394E-03
(PID.TID 0000.0001) %MON advcfl_wvel_max              =   6.3758729327621E-03
(PID.TID 0000.0001) %MON advcfl_W_hf_max              =   5.7409667364886E-03
(PID.TID 0000.0001) %MON pe_b_mean                    =   1.0666890178610E-05
(PID.TID 0000.0001) %MON ke_max                       =   1.2991867073097E-02
(PID.TID 0000.0001) %MON ke_mean                      =   4.6961606484635E-05
(PID.TID 0000.0001) %MON ke_vol                       =   3.6027486600263E+16
(PID.TID 0000.0001) %MON vort_r_min                   =  -4.3006968881900E-07
(PID.TID 0000.0001) %MON vort_r_max                   =   7.0671782642741E-07
(PID.TID 0000.0001) %MON vort_a_mean                  =   6.2114138811197E-05
(PID.TID 0000.0001) %MON vort_a_sd                    =   1.9250815722006E-05
(PID.TID 0000.0001) %MON vort_p_mean                  =   7.8095197769435E-05
(PID.TID 0000.0001) %MON vort_p_sd                    =   5.6521549277291E-05
(PID.TID 0000.0001) %MON surfExpan_theta_mean         =   2.8040376225160E-07
(PID.TID 0000.0001) %MON surfExpan_salt_mean          =  -7.5279591421204E-07
(PID.TID 0000.0001) // =======================================================
(PID.TID 0000.0001) // End MONITOR dynamic field statistics
(PID.TID 0000.0001) // =======================================================
(PID.TID 0000.0001) // =======================================================
(PID.TID 0000.0001) // Begin MONITOR ptracer field statistics
(PID.TID 0000.0001) // =======================================================
(PID.TID 0000.0001) %MON trcstat_ptracer01_max        =   3.7400525813270E+01
(PID.TID 0000.0001) %MON trcstat_ptracer01_min        =   3.4726791254699E+01
(PID.TID 0000.0001) %MON trcstat_ptracer01_mean       =   3.5157552913267E+01
(PID.TID 0000.0001) %MON trcstat_ptracer01_sd         =   4.1375957058054E-01
(PID.TID 0000.0001) %MON trcstat_ptracer01_del2       =   1.2630988174377E-02
(PID.TID 0000.0001) // =======================================================
(PID.TID 0000.0001) // End MONITOR ptracers field statistics
(PID.TID 0000.0001) // =======================================================
time,SST,SSS,fu,fv,Q,E-P,i0,i1,a,b =   4.6800E+04  0.0000E+00  0.0000E+00  0.0000E+00  0.0000E+00  0.0000E+00  0.0000E+00     1     2  5.8333E-01  4.1667E-01
time,fu0,fu1,fu =   4.6800E+04  0.0000E+00  0.0000E+00  0.0000E+00  5.833333333333334E-01  4.166666666666666E-01
 cg2d: Sum(rhs),rhsMax =  -8.88178419700125E-16  5.95199244063473E-01
(PID.TID 0000.0001)                    cg2d_init_res =    2.04226939989177E-01
(PID.TID 0000.0001)                       cg2d_iters =    47
(PID.TID 0000.0001)                         cg2d_res =    3.87091035502663E-14
(PID.TID 0000.0001) // =======================================================
(PID.TID 0000.0001) // Begin MONITOR dynamic field statistics
(PID.TID 0000.0001) // =======================================================
(PID.TID 0000.0001) %MON time_tsnumber                =                     8
(PID.TID 0000.0001) %MON time_secondsf                =   5.0400000000000E+04
(PID.TID 0000.0001) %MON dynstat_eta_max              =   1.6661590359997E-01
(PID.TID 0000.0001) %MON dynstat_eta_min              =  -2.5263895005648E-01
(PID.TID 0000.0001) %MON dynstat_eta_mean             =  -1.1029935733303E-17
(PID.TID 0000.0001) %MON dynstat_eta_sd               =   8.6963429383065E-02
(PID.TID 0000.0001) %MON dynstat_eta_del2             =   4.6378473226273E-03
(PID.TID 0000.0001) %MON dynstat_uvel_max             =   1.1946331050264E-01
(PID.TID 0000.0001) %MON dynstat_uvel_min             =  -1.7311785786738E-01
(PID.TID 0000.0001) %MON dynstat_uvel_mean            =   5.6416879720029E-04
(PID.TID 0000.0001) %MON dynstat_uvel_sd              =   8.2094144542039E-03
(PID.TID 0000.0001) %MON dynstat_uvel_del2            =   2.9832964385631E-03
(PID.TID 0000.0001) %MON dynstat_vvel_max             =   5.3580978928551E-02
(PID.TID 0000.0001) %MON dynstat_vvel_min             =  -1.2609555127611E-01
(PID.TID 0000.0001) %MON dynstat_vvel_mean            =  -3.5935835270188E-05
(PID.TID 0000.0001) %MON dynstat_vvel_sd              =   7.1779985524225E-03
(PID.TID 0000.0001) %MON dynstat_vvel_del2            =   2.4460086472310E-03
(PID.TID 0000.0001) %MON dynstat_wvel_max             =   1.3863559952055E-04
(PID.TID 0000.0001) %MON dynstat_wvel_min             =  -1.6453554895770E-04
(PID.TID 0000.0001) %MON dynstat_wvel_mean            =   3.3764361577003E-22
(PID.TID 0000.0001) %MON dynstat_wvel_sd              =   3.6164032288383E-05
(PID.TID 0000.0001) %MON dynstat_wvel_del2            =   8.3104644127458E-06
(PID.TID 0000.0001) %MON dynstat_theta_max            =   2.6088653718764E+01
(PID.TID 0000.0001) %MON dynstat_theta_min            =   1.8064451297422E+00
(PID.TID 0000.0001) %MON dynstat_theta_mean           =   5.4785176289336E+00
(PID.TID 0000.0001) %MON dynstat_theta_sd             =   4.5927501026260E+00
(PID.TID 0000.0001) %MON dynstat_theta_del2           =   5.0711989653729E-02
(PID.TID 0000.0001) %MON dynstat_salt_max             =   3.7402193842199E+01
(PID.TID 0000.0001) %MON dynstat_salt_min             =   3.4726793054026E+01
(PID.TID 0000.0001) %MON dynstat_salt_mean            =   3.5157562910279E+01
(PID.TID 0000.0001) %MON dynstat_salt_sd              =   4.1378799275185E-01
(PID.TID 0000.0001) %MON dynstat_salt_del2            =   1.2630818521654E-02
(PID.TID 0000.0001) %MON extforcing_qnet_max          =   3.7984158833822E+01
(PID.TID 0000.0001) %MON extforcing_qnet_min          =  -1.6853647994995E+02
(PID.TID 0000.0001) %MON extforcing_qnet_mean         =  -7.9448248268458E+01
(PID.TID 0000.0001) %MON extforcing_qnet_sd           =   5.1687193850144E+01
(PID.TID 0000.0001) %MON extforcing_qnet_del2         =   8.0776038898036E+00
(PID.TID 0000.0001) %MON extforcing_qsw_max           =  -1.4661845270793E+02
(PID.TID 0000.0001) %MON extforcing_qsw_min           =  -3.1572941589355E+02
(PID.TID 0000.0001) %MON extforcing_qsw_mean          =  -2.4818399441075E+02
(PID.TID 0000.0001) %MON extforcing_qsw_sd            =   4.1931857501445E+01
(PID.TID 0000.0001) %MON extforcing_qsw_del2          =   5.9088638850621E+00
(PID.TID 0000.0001) %MON extforcing_empmr_max         =   6.6317653831878E-05
(PID.TID 0000.0001) %MON extforcing_empmr_min         =   1.3151340821323E-05
(PID.TID 0000.0001) %MON extforcing_empmr_mean        =   3.9467967369872E-05
(PID.TID 0000.0001) %MON extforcing_empmr_sd          =   1.1817053741946E-05
(PID.TID 0000.0001) %MON extforcing_empmr_del2        =   2.2562164364477E-06
(PID.TID 0000.0001) %MON advcfl_uvel_max              =   2.9017085984242E-03
(PID.TID 0000.0001) %MON advcfl_vvel_max              =   2.0415286069534E-03
(PID.TID 0000.0001) %MON advcfl_wvel_max              =   5.5773023905044E-03
(PID.TID 0000.0001) %MON advcfl_W_hf_max              =   6.1522573949449E-03
(PID.TID 0000.0001) %MON pe_b_mean                    =   9.1160232297610E-06
(PID.TID 0000.0001) %MON ke_max                       =   1.4971713569456E-02
(PID.TID 0000.0001) %MON ke_mean                      =   5.3121570818304E-05
(PID.TID 0000.0001) %MON ke_vol                       =   3.6027486600263E+16
(PID.TID 0000.0001) %MON vort_r_min                   =  -3.5027023978262E-07
(PID.TID 0000.0001) %MON vort_r_max                   =   7.5449916382745E-07
(PID.TID 0000.0001) %MON vort_a_mean                  =   6.2114138811197E-05
(PID.TID 0000.0001) %MON vort_a_sd                    =   1.9250774205708E-05
(PID.TID 0000.0001) %MON vort_p_mean                  =   7.8095197769435E-05
(PID.TID 0000.0001) %MON vort_p_sd                    =   5.6521831161533E-05
(PID.TID 0000.0001) %MON surfExpan_theta_mean         =  -1.9793165516304E-06
(PID.TID 0000.0001) %MON surfExpan_salt_mean          =  -4.8385662503855E-07
(PID.TID 0000.0001) // =======================================================
(PID.TID 0000.0001) // End MONITOR dynamic field statistics
(PID.TID 0000.0001) // =======================================================
(PID.TID 0000.0001) // =======================================================
(PID.TID 0000.0001) // Begin MONITOR ptracer field statistics
(PID.TID 0000.0001) // =======================================================
(PID.TID 0000.0001) %MON trcstat_ptracer01_max        =   3.7400525813270E+01
(PID.TID 0000.0001) %MON trcstat_ptracer01_min        =   3.4726791254699E+01
(PID.TID 0000.0001) %MON trcstat_ptracer01_mean       =   3.5157552913267E+01
(PID.TID 0000.0001) %MON trcstat_ptracer01_sd         =   4.1375957058054E-01
(PID.TID 0000.0001) %MON trcstat_ptracer01_del2       =   1.2630988174377E-02
(PID.TID 0000.0001) // =======================================================
(PID.TID 0000.0001) // End MONITOR ptracers field statistics
(PID.TID 0000.0001) // =======================================================
time,SST,SSS,fu,fv,Q,E-P,i0,i1,a,b =   5.0400E+04  0.0000E+00  0.0000E+00  0.0000E+00  0.0000E+00  0.0000E+00  0.0000E+00     1     2  6.6667E-01  3.3333E-01
time,fu0,fu1,fu =   5.0400E+04  0.0000E+00  0.0000E+00  0.0000E+00  6.666666666666666E-01  3.333333333333334E-01
 cg2d: Sum(rhs),rhsMax =   5.32907051820075E-15  5.78218465407802E-01
(PID.TID 0000.0001)                    cg2d_init_res =    1.56497254864863E-01
(PID.TID 0000.0001)                       cg2d_iters =    46
(PID.TID 0000.0001)                         cg2d_res =    6.02855589677892E-14
(PID.TID 0000.0001) // =======================================================
(PID.TID 0000.0001) // Begin MONITOR dynamic field statistics
(PID.TID 0000.0001) // =======================================================
(PID.TID 0000.0001) %MON time_tsnumber                =                     9
(PID.TID 0000.0001) %MON time_secondsf                =   5.4000000000000E+04
(PID.TID 0000.0001) %MON dynstat_eta_max              =   1.5761389656870E-01
(PID.TID 0000.0001) %MON dynstat_eta_min              =  -2.3632455636404E-01
(PID.TID 0000.0001) %MON dynstat_eta_mean             =  -3.5847291133235E-17
(PID.TID 0000.0001) %MON dynstat_eta_sd               =   8.0259576149580E-02
(PID.TID 0000.0001) %MON dynstat_eta_del2             =   4.6121440524713E-03
(PID.TID 0000.0001) %MON dynstat_uvel_max             =   9.3650969822957E-02
(PID.TID 0000.0001) %MON dynstat_uvel_min             =  -1.8285502120177E-01
(PID.TID 0000.0001) %MON dynstat_uvel_mean            =   4.0602922296815E-04
(PID.TID 0000.0001) %MON dynstat_uvel_sd              =   8.7639084200180E-03
(PID.TID 0000.0001) %MON dynstat_uvel_del2            =   3.2429272141655E-03
(PID.TID 0000.0001) %MON dynstat_vvel_max             =   6.1944901993302E-02
(PID.TID 0000.0001) %MON dynstat_vvel_min             =  -1.2372589483786E-01
(PID.TID 0000.0001) %MON dynstat_vvel_mean            =   2.5707436548155E-04
(PID.TID 0000.0001) %MON dynstat_vvel_sd              =   7.2731547686497E-03
(PID.TID 0000.0001) %MON dynstat_vvel_del2            =   2.3229565831803E-03
(PID.TID 0000.0001) %MON dynstat_wvel_max             =   1.4543599560199E-04
(PID.TID 0000.0001) %MON dynstat_wvel_min             =  -1.6631722712184E-04
(PID.TID 0000.0001) %MON dynstat_wvel_mean            =  -1.0129308473101E-21
(PID.TID 0000.0001) %MON dynstat_wvel_sd              =   3.5305987751835E-05
(PID.TID 0000.0001) %MON dynstat_wvel_del2            =   7.7790376511675E-06
(PID.TID 0000.0001) %MON dynstat_theta_max            =   2.6095489906766E+01
(PID.TID 0000.0001) %MON dynstat_theta_min            =   1.8064468246539E+00
(PID.TID 0000.0001) %MON dynstat_theta_mean           =   5.4785378099878E+00
(PID.TID 0000.0001) %MON dynstat_theta_sd             =   4.5928187064053E+00
(PID.TID 0000.0001) %MON dynstat_theta_del2           =   5.0715187252789E-02
(PID.TID 0000.0001) %MON dynstat_salt_max             =   3.7402535979711E+01
(PID.TID 0000.0001) %MON dynstat_salt_min             =   3.4726792901556E+01
(PID.TID 0000.0001) %MON dynstat_salt_mean            =   3.5157564492299E+01
(PID.TID 0000.0001) %MON dynstat_salt_sd              =   4.1379236599599E-01
(PID.TID 0000.0001) %MON dynstat_salt_del2            =   1.2632241445712E-02
(PID.TID 0000.0001) %MON extforcing_qnet_max          =   4.0802118937174E+01
(PID.TID 0000.0001) %MON extforcing_qnet_min          =  -1.6719363403320E+02
(PID.TID 0000.0001) %MON extforcing_qnet_mean         =  -7.8480051020742E+01
(PID.TID 0000.0001) %MON extforcing_qnet_sd           =   5.1740364754944E+01
(PID.TID 0000.0001) %MON extforcing_qnet_del2         =   8.0758395891863E+00
(PID.TID 0000.0001) %MON extforcing_qsw_max           =  -1.4420261128743E+02
(PID.TID 0000.0001) %MON extforcing_qsw_min           =  -3.1632424926758E+02
(PID.TID 0000.0001) %MON extforcing_qsw_mean          =  -2.4846359410256E+02
(PID.TID 0000.0001) %MON extforcing_qsw_sd            =   4.2124756076541E+01
(PID.TID 0000.0001) %MON extforcing_qsw_del2          =   5.9065190207195E+00
(PID.TID 0000.0001) %MON extforcing_empmr_max         =   6.6790408281274E-05
(PID.TID 0000.0001) %MON extforcing_empmr_min         =   1.3301053239504E-05
(PID.TID 0000.0001) %MON extforcing_empmr_mean        =   3.9857326917978E-05
(PID.TID 0000.0001) %MON extforcing_empmr_sd          =   1.1815422392223E-05
(PID.TID 0000.0001) %MON extforcing_empmr_del2        =   2.2620901190917E-06
(PID.TID 0000.0001) %MON advcfl_uvel_max              =   3.0649177030176E-03
(PID.TID 0000.0001) %MON advcfl_vvel_max              =   2.0031630868509E-03
(PID.TID 0000.0001) %MON advcfl_wvel_max              =   5.3928175883130E-03
(PID.TID 0000.0001) %MON advcfl_W_hf_max              =   5.9080258000343E-03
(PID.TID 0000.0001) %MON pe_b_mean                    =   7.7647205738096E-06
(PID.TID 0000.0001) %MON ke_max                       =   1.6802455470037E-02
(PID.TID 0000.0001) %MON ke_mean                      =   5.7922757124785E-05
(PID.TID 0000.0001) %MON ke_vol                       =   3.6027486600263E+16
(PID.TID 0000.0001) %MON vort_r_min                   =  -3.6927501694736E-07
(PID.TID 0000.0001) %MON vort_r_max                   =   7.9378232947227E-07
(PID.TID 0000.0001) %MON vort_a_mean                  =   6.2114138811197E-05
(PID.TID 0000.0001) %MON vort_a_sd                    =   1.9250636831786E-05
(PID.TID 0000.0001) %MON vort_p_mean                  =   7.8095197769435E-05
(PID.TID 0000.0001) %MON vort_p_sd                    =   5.6521662735238E-05
(PID.TID 0000.0001) %MON surfExpan_theta_mean         =  -3.4312197342947E-06
(PID.TID 0000.0001) %MON surfExpan_salt_mean          =  -1.4269916807713E-07
(PID.TID 0000.0001) // =======================================================
(PID.TID 0000.0001) // End MONITOR dynamic field statistics
(PID.TID 0000.0001) // =======================================================
(PID.TID 0000.0001) // =======================================================
(PID.TID 0000.0001) // Begin MONITOR ptracer field statistics
(PID.TID 0000.0001) // =======================================================
(PID.TID 0000.0001) %MON trcstat_ptracer01_max        =   3.7400648264498E+01
(PID.TID 0000.0001) %MON trcstat_ptracer01_min        =   3.4726787680377E+01
(PID.TID 0000.0001) %MON trcstat_ptracer01_mean       =   3.5157556276418E+01
(PID.TID 0000.0001) %MON trcstat_ptracer01_sd         =   4.1376807232657E-01
(PID.TID 0000.0001) %MON trcstat_ptracer01_del2       =   1.2634357620283E-02
(PID.TID 0000.0001) // =======================================================
(PID.TID 0000.0001) // End MONITOR ptracers field statistics
(PID.TID 0000.0001) // =======================================================
 Computing Diagnostic #    211  TRAC01       Counter:       1   Parms: SM P    MR      
time,SST,SSS,fu,fv,Q,E-P,i0,i1,a,b =   5.4000E+04  0.0000E+00  0.0000E+00  0.0000E+00  0.0000E+00  0.0000E+00  0.0000E+00     1     2  7.5000E-01  2.5000E-01
time,fu0,fu1,fu =   5.4000E+04  0.0000E+00  0.0000E+00  0.0000E+00  7.500000000000000E-01  2.500000000000000E-01
 cg2d: Sum(rhs),rhsMax =   8.88178419700125E-15  5.63513195140276E-01
(PID.TID 0000.0001)                    cg2d_init_res =    1.44890528565678E-01
(PID.TID 0000.0001)                       cg2d_iters =    46
(PID.TID 0000.0001)                         cg2d_res =    8.82617657416238E-14
(PID.TID 0000.0001) // =======================================================
(PID.TID 0000.0001) // Begin MONITOR dynamic field statistics
(PID.TID 0000.0001) // =======================================================
(PID.TID 0000.0001) %MON time_tsnumber                =                    10
(PID.TID 0000.0001) %MON time_secondsf                =   5.7600000000000E+04
(PID.TID 0000.0001) %MON dynstat_eta_max              =   1.5080001148982E-01
(PID.TID 0000.0001) %MON dynstat_eta_min              =  -2.2245262120533E-01
(PID.TID 0000.0001) %MON dynstat_eta_mean             =  -5.7907162599841E-17
(PID.TID 0000.0001) %MON dynstat_eta_sd               =   7.4949035236874E-02
(PID.TID 0000.0001) %MON dynstat_eta_del2             =   4.5717502449558E-03
(PID.TID 0000.0001) %MON dynstat_uvel_max             =   6.8338867562818E-02
(PID.TID 0000.0001) %MON dynstat_uvel_min             =  -1.9302314268184E-01
(PID.TID 0000.0001) %MON dynstat_uvel_mean            =   2.2215291705281E-04
(PID.TID 0000.0001) %MON dynstat_uvel_sd              =   9.1868651574097E-03
(PID.TID 0000.0001) %MON dynstat_uvel_del2            =   3.4396429828826E-03
(PID.TID 0000.0001) %MON dynstat_vvel_max             =   6.9148022301287E-02
(PID.TID 0000.0001) %MON dynstat_vvel_min             =  -1.2564115052003E-01
(PID.TID 0000.0001) %MON dynstat_vvel_mean            =   4.1766495868778E-04
(PID.TID 0000.0001) %MON dynstat_vvel_sd              =   7.2883699798943E-03
(PID.TID 0000.0001) %MON dynstat_vvel_del2            =   2.1958362799346E-03
(PID.TID 0000.0001) %MON dynstat_wvel_max             =   1.4968680615880E-04
(PID.TID 0000.0001) %MON dynstat_wvel_min             =  -1.6302569895594E-04
(PID.TID 0000.0001) %MON dynstat_wvel_mean            =  -2.2509574384669E-22
(PID.TID 0000.0001) %MON dynstat_wvel_sd              =   3.4236098539491E-05
(PID.TID 0000.0001) %MON dynstat_wvel_del2            =   7.2442530628480E-06
(PID.TID 0000.0001) %MON dynstat_theta_max            =   2.6102382208254E+01
(PID.TID 0000.0001) %MON dynstat_theta_min            =   1.8064483898480E+00
(PID.TID 0000.0001) %MON dynstat_theta_mean           =   5.4785586351015E+00
(PID.TID 0000.0001) %MON dynstat_theta_sd             =   4.5928898753087E+00
(PID.TID 0000.0001) %MON dynstat_theta_del2           =   5.0728239652207E-02
(PID.TID 0000.0001) %MON dynstat_salt_max             =   3.7402889800559E+01
(PID.TID 0000.0001) %MON dynstat_salt_min             =   3.4726792907126E+01
(PID.TID 0000.0001) %MON dynstat_salt_mean            =   3.5157565744774E+01
(PID.TID 0000.0001) %MON dynstat_salt_sd              =   4.1379584636877E-01
(PID.TID 0000.0001) %MON dynstat_salt_del2            =   1.2634074302650E-02
(PID.TID 0000.0001) %MON extforcing_qnet_max          =   4.3620079040527E+01
(PID.TID 0000.0001) %MON extforcing_qnet_min          =  -1.6585078811646E+02
(PID.TID 0000.0001) %MON extforcing_qnet_mean         =  -7.7511853773026E+01
(PID.TID 0000.0001) %MON extforcing_qnet_sd           =   5.1823890423082E+01
(PID.TID 0000.0001) %MON extforcing_qnet_del2         =   8.0811202937159E+00
(PID.TID 0000.0001) %MON extforcing_qsw_max           =  -1.4178676986694E+02
(PID.TID 0000.0001) %MON extforcing_qsw_min           =  -3.1691908264160E+02
(PID.TID 0000.0001) %MON extforcing_qsw_mean          =  -2.4874319379438E+02
(PID.TID 0000.0001) %MON extforcing_qsw_sd            =   4.2339446866167E+01
(PID.TID 0000.0001) %MON extforcing_qsw_del2          =   5.9116569951250E+00
(PID.TID 0000.0001) %MON extforcing_empmr_max         =   6.7263162730669E-05
(PID.TID 0000.0001) %MON extforcing_empmr_min         =   1.3450765657685E-05
(PID.TID 0000.0001) %MON extforcing_empmr_mean        =   4.0246686466085E-05
(PID.TID 0000.0001) %MON extforcing_empmr_sd          =   1.1824252951252E-05
(PID.TID 0000.0001) %MON extforcing_empmr_del2        =   2.2694266614559E-06
(PID.TID 0000.0001) %MON advcfl_uvel_max              =   3.2679001010765E-03
(PID.TID 0000.0001) %MON advcfl_vvel_max              =   2.0341717086873E-03
(PID.TID 0000.0001) %MON advcfl_wvel_max              =   4.8888594375657E-03
(PID.TID 0000.0001) %MON advcfl_W_hf_max              =   5.6799772335749E-03
(PID.TID 0000.0001) %MON pe_b_mean                    =   6.7711775456869E-06
(PID.TID 0000.0001) %MON ke_max                       =   1.8360122248378E-02
(PID.TID 0000.0001) %MON ke_mean                      =   6.1434311473010E-05
(PID.TID 0000.0001) %MON ke_vol                       =   3.6027486600263E+16
(PID.TID 0000.0001) %MON vort_r_min                   =  -3.7902521714724E-07
(PID.TID 0000.0001) %MON vort_r_max                   =   8.2362998115780E-07
(PID.TID 0000.0001) %MON vort_a_mean                  =   6.2114138811197E-05
(PID.TID 0000.0001) %MON vort_a_sd                    =   1.9250478420655E-05
(PID.TID 0000.0001) %MON vort_p_mean                  =   7.8095197769435E-05
(PID.TID 0000.0001) %MON vort_p_sd                    =   5.6521198878810E-05
(PID.TID 0000.0001) %MON surfExpan_theta_mean         =  -3.8511626285931E-06
(PID.TID 0000.0001) %MON surfExpan_salt_mean          =   1.3209705508121E-07
(PID.TID 0000.0001) // =======================================================
(PID.TID 0000.0001) // End MONITOR dynamic field statistics
(PID.TID 0000.0001) // =======================================================
(PID.TID 0000.0001) // =======================================================
(PID.TID 0000.0001) // Begin MONITOR ptracer field statistics
(PID.TID 0000.0001) // =======================================================
(PID.TID 0000.0001) %MON trcstat_ptracer01_max        =   3.7400648264498E+01
(PID.TID 0000.0001) %MON trcstat_ptracer01_min        =   3.4726787680377E+01
(PID.TID 0000.0001) %MON trcstat_ptracer01_mean       =   3.5157556276418E+01
(PID.TID 0000.0001) %MON trcstat_ptracer01_sd         =   4.1376807232657E-01
(PID.TID 0000.0001) %MON trcstat_ptracer01_del2       =   1.2634357620283E-02
(PID.TID 0000.0001) // =======================================================
(PID.TID 0000.0001) // End MONITOR ptracers field statistics
(PID.TID 0000.0001) // =======================================================
time,SST,SSS,fu,fv,Q,E-P,i0,i1,a,b =   5.7600E+04  0.0000E+00  0.0000E+00  0.0000E+00  0.0000E+00  0.0000E+00  0.0000E+00     1     2  8.3333E-01  1.6667E-01
time,fu0,fu1,fu =   5.7600E+04  0.0000E+00  0.0000E+00  0.0000E+00  8.333333333333334E-01  1.666666666666666E-01
 cg2d: Sum(rhs),rhsMax =   9.76996261670138E-15  5.52501625137603E-01
(PID.TID 0000.0001)                    cg2d_init_res =    1.38584557178039E-01
(PID.TID 0000.0001)                       cg2d_iters =    45
(PID.TID 0000.0001)                         cg2d_res =    6.88162331063413E-14
(PID.TID 0000.0001) // =======================================================
(PID.TID 0000.0001) // Begin MONITOR dynamic field statistics
(PID.TID 0000.0001) // =======================================================
(PID.TID 0000.0001) %MON time_tsnumber                =                    11
(PID.TID 0000.0001) %MON time_secondsf                =   6.1200000000000E+04
(PID.TID 0000.0001) %MON dynstat_eta_max              =   1.4685663269067E-01
(PID.TID 0000.0001) %MON dynstat_eta_min              =  -2.1249910564802E-01
(PID.TID 0000.0001) %MON dynstat_eta_mean             =  -6.0664646533167E-17
(PID.TID 0000.0001) %MON dynstat_eta_sd               =   7.1837109474326E-02
(PID.TID 0000.0001) %MON dynstat_eta_del2             =   4.5445428721450E-03
(PID.TID 0000.0001) %MON dynstat_uvel_max             =   4.8556891023392E-02
(PID.TID 0000.0001) %MON dynstat_uvel_min             =  -2.0381453454397E-01
(PID.TID 0000.0001) %MON dynstat_uvel_mean            =   6.3509819631985E-05
(PID.TID 0000.0001) %MON dynstat_uvel_sd              =   9.4879244241421E-03
(PID.TID 0000.0001) %MON dynstat_uvel_del2            =   3.5546212966897E-03
(PID.TID 0000.0001) %MON dynstat_vvel_max             =   7.4165521173600E-02
(PID.TID 0000.0001) %MON dynstat_vvel_min             =  -1.3171614363707E-01
(PID.TID 0000.0001) %MON dynstat_vvel_mean            =   4.2554017945055E-04
(PID.TID 0000.0001) %MON dynstat_vvel_sd              =   7.2522390040660E-03
(PID.TID 0000.0001) %MON dynstat_vvel_del2            =   2.1283916407285E-03
(PID.TID 0000.0001) %MON dynstat_wvel_max             =   1.5138614414325E-04
(PID.TID 0000.0001) %MON dynstat_wvel_min             =  -1.5490011323098E-04
(PID.TID 0000.0001) %MON dynstat_wvel_mean            =  -6.7528723154006E-22
(PID.TID 0000.0001) %MON dynstat_wvel_sd              =   3.3280014165694E-05
(PID.TID 0000.0001) %MON dynstat_wvel_del2            =   6.8476572713316E-06
(PID.TID 0000.0001) %MON dynstat_theta_max            =   2.6109265247550E+01
(PID.TID 0000.0001) %MON dynstat_theta_min            =   1.8064498476002E+00
(PID.TID 0000.0001) %MON dynstat_theta_mean           =   5.4785790727140E+00
(PID.TID 0000.0001) %MON dynstat_theta_sd             =   4.5929597432755E+00
(PID.TID 0000.0001) %MON dynstat_theta_del2           =   5.0752234674584E-02
(PID.TID 0000.0001) %MON dynstat_salt_max             =   3.7403259348070E+01
(PID.TID 0000.0001) %MON dynstat_salt_min             =   3.4726793404006E+01
(PID.TID 0000.0001) %MON dynstat_salt_mean            =   3.5157566800081E+01
(PID.TID 0000.0001) %MON dynstat_salt_sd              =   4.1379874405618E-01
(PID.TID 0000.0001) %MON dynstat_salt_del2            =   1.2636515466743E-02
(PID.TID 0000.0001) %MON extforcing_qnet_max          =   4.6438039143880E+01
(PID.TID 0000.0001) %MON extforcing_qnet_min          =  -1.6450794219971E+02
(PID.TID 0000.0001) %MON extforcing_qnet_mean         =  -7.6543656525311E+01
(PID.TID 0000.0001) %MON extforcing_qnet_sd           =   5.1937624405908E+01
(PID.TID 0000.0001) %MON extforcing_qnet_del2         =   8.0963423248191E+00
(PID.TID 0000.0001) %MON extforcing_qsw_max           =  -1.3937092844645E+02
(PID.TID 0000.0001) %MON extforcing_qsw_min           =  -3.1751391601562E+02
(PID.TID 0000.0001) %MON extforcing_qsw_mean          =  -2.4902279348619E+02
(PID.TID 0000.0001) %MON extforcing_qsw_sd            =   4.2575600204769E+01
(PID.TID 0000.0001) %MON extforcing_qsw_del2          =   5.9252104109340E+00
(PID.TID 0000.0001) %MON extforcing_empmr_max         =   6.7735917180064E-05
(PID.TID 0000.0001) %MON extforcing_empmr_min         =   1.3600478075867E-05
(PID.TID 0000.0001) %MON extforcing_empmr_mean        =   4.0636046014191E-05
(PID.TID 0000.0001) %MON extforcing_empmr_sd          =   1.1843522017782E-05
(PID.TID 0000.0001) %MON extforcing_empmr_del2        =   2.2805237595540E-06
(PID.TID 0000.0001) %MON advcfl_uvel_max              =   3.4505993881518E-03
(PID.TID 0000.0001) %MON advcfl_vvel_max              =   2.1325278529760E-03
(PID.TID 0000.0001) %MON advcfl_wvel_max              =   4.5090402568535E-03
(PID.TID 0000.0001) %MON advcfl_W_hf_max              =   5.6363003210669E-03
(PID.TID 0000.0001) %MON pe_b_mean                    =   6.2205646231585E-06
(PID.TID 0000.0001) %MON ke_max                       =   1.9654324330725E-02
(PID.TID 0000.0001) %MON ke_mean                      =   6.3717585826116E-05
(PID.TID 0000.0001) %MON ke_vol                       =   3.6027486600263E+16
(PID.TID 0000.0001) %MON vort_r_min                   =  -3.8422236930996E-07
(PID.TID 0000.0001) %MON vort_r_max                   =   8.4218410025098E-07
(PID.TID 0000.0001) %MON vort_a_mean                  =   6.2114138811197E-05
(PID.TID 0000.0001) %MON vort_a_sd                    =   1.9250341976032E-05
(PID.TID 0000.0001) %MON vort_p_mean                  =   7.8095197769435E-05
(PID.TID 0000.0001) %MON vort_p_sd                    =   5.6520604034204E-05
(PID.TID 0000.0001) %MON surfExpan_theta_mean         =  -3.2949639380452E-06
(PID.TID 0000.0001) %MON surfExpan_salt_mean          =   2.6871581519612E-07
(PID.TID 0000.0001) // =======================================================
(PID.TID 0000.0001) // End MONITOR dynamic field statistics
(PID.TID 0000.0001) // =======================================================
(PID.TID 0000.0001) // =======================================================
(PID.TID 0000.0001) // Begin MONITOR ptracer field statistics
(PID.TID 0000.0001) // =======================================================
(PID.TID 0000.0001) %MON trcstat_ptracer01_max        =   3.7400648264498E+01
(PID.TID 0000.0001) %MON trcstat_ptracer01_min        =   3.4726787680377E+01
(PID.TID 0000.0001) %MON trcstat_ptracer01_mean       =   3.5157556276418E+01
(PID.TID 0000.0001) %MON trcstat_ptracer01_sd         =   4.1376807232657E-01
(PID.TID 0000.0001) %MON trcstat_ptracer01_del2       =   1.2634357620283E-02
(PID.TID 0000.0001) // =======================================================
(PID.TID 0000.0001) // End MONITOR ptracers field statistics
(PID.TID 0000.0001) // =======================================================
time,SST,SSS,fu,fv,Q,E-P,i0,i1,a,b =   6.1200E+04  0.0000E+00  0.0000E+00  0.0000E+00  0.0000E+00  0.0000E+00  0.0000E+00     1     2  9.1667E-01  8.3333E-02
time,fu0,fu1,fu =   6.1200E+04  0.0000E+00  0.0000E+00  0.0000E+00  9.166666666666666E-01  8.333333333333337E-02
 cg2d: Sum(rhs),rhsMax =   1.15463194561016E-14  5.45530964572402E-01
(PID.TID 0000.0001)                    cg2d_init_res =    1.16906716502294E-01
(PID.TID 0000.0001)                       cg2d_iters =    45
(PID.TID 0000.0001)                         cg2d_res =    7.16726216301747E-14
(PID.TID 0000.0001) // =======================================================
(PID.TID 0000.0001) // Begin MONITOR dynamic field statistics
(PID.TID 0000.0001) // =======================================================
(PID.TID 0000.0001) %MON time_tsnumber                =                    12
(PID.TID 0000.0001) %MON time_secondsf                =   6.4800000000000E+04
(PID.TID 0000.0001) %MON dynstat_eta_max              =   1.4569456417158E-01
(PID.TID 0000.0001) %MON dynstat_eta_min              =  -2.0698277246003E-01
(PID.TID 0000.0001) %MON dynstat_eta_mean             =  -6.8937098333144E-17
(PID.TID 0000.0001) %MON dynstat_eta_sd               =   7.0962449484828E-02
(PID.TID 0000.0001) %MON dynstat_eta_del2             =   4.5401384212316E-03
(PID.TID 0000.0001) %MON dynstat_uvel_max             =   4.7505387346598E-02
(PID.TID 0000.0001) %MON dynstat_uvel_min             =  -2.1183944438314E-01
(PID.TID 0000.0001) %MON dynstat_uvel_mean            =  -5.0884171387166E-05
(PID.TID 0000.0001) %MON dynstat_uvel_sd              =   9.6734250125998E-03
(PID.TID 0000.0001) %MON dynstat_uvel_del2            =   3.5756896556017E-03
(PID.TID 0000.0001) %MON dynstat_vvel_max             =   7.6861271940601E-02
(PID.TID 0000.0001) %MON dynstat_vvel_min             =  -1.3637814878518E-01
(PID.TID 0000.0001) %MON dynstat_vvel_mean            =   3.1390141219188E-04
(PID.TID 0000.0001) %MON dynstat_vvel_sd              =   7.1805861637805E-03
(PID.TID 0000.0001) %MON dynstat_vvel_del2            =   2.1431599254437E-03
(PID.TID 0000.0001) %MON dynstat_wvel_max             =   1.5051162782204E-04
(PID.TID 0000.0001) %MON dynstat_wvel_min             =  -1.5148591121934E-04
(PID.TID 0000.0001) %MON dynstat_wvel_mean            =  -2.2509574384669E-22
(PID.TID 0000.0001) %MON dynstat_wvel_sd              =   3.2597730962509E-05
(PID.TID 0000.0001) %MON dynstat_wvel_del2            =   6.7235768651808E-06
(PID.TID 0000.0001) %MON dynstat_theta_max            =   2.6116072040495E+01
(PID.TID 0000.0001) %MON dynstat_theta_min            =   1.8064512474909E+00
(PID.TID 0000.0001) %MON dynstat_theta_mean           =   5.4785982886567E+00
(PID.TID 0000.0001) %MON dynstat_theta_sd             =   4.5930251435933E+00
(PID.TID 0000.0001) %MON dynstat_theta_del2           =   5.0788984523072E-02
(PID.TID 0000.0001) %MON dynstat_salt_max             =   3.7403640107263E+01
(PID.TID 0000.0001) %MON dynstat_salt_min             =   3.4726794692789E+01
(PID.TID 0000.0001) %MON dynstat_salt_mean            =   3.5157567818691E+01
(PID.TID 0000.0001) %MON dynstat_salt_sd              =   4.1380147319708E-01
(PID.TID 0000.0001) %MON dynstat_salt_del2            =   1.2640171620696E-02
(PID.TID 0000.0001) %MON extforcing_qnet_max          =   4.9255999247233E+01
(PID.TID 0000.0001) %MON extforcing_qnet_min          =  -1.6316509628296E+02
(PID.TID 0000.0001) %MON extforcing_qnet_mean         =  -7.5575459277595E+01
(PID.TID 0000.0001) %MON extforcing_qnet_sd           =   5.2081368799327E+01
(PID.TID 0000.0001) %MON extforcing_qnet_del2         =   8.1172915977015E+00
(PID.TID 0000.0001) %MON extforcing_qsw_max           =  -1.3695508702596E+02
(PID.TID 0000.0001) %MON extforcing_qsw_min           =  -3.1810874938965E+02
(PID.TID 0000.0001) %MON extforcing_qsw_mean          =  -2.4930239317800E+02
(PID.TID 0000.0001) %MON extforcing_qsw_sd            =   4.2832861101004E+01
(PID.TID 0000.0001) %MON extforcing_qsw_del2          =   5.9467413202295E+00
(PID.TID 0000.0001) %MON extforcing_empmr_max         =   6.8208671629459E-05
(PID.TID 0000.0001) %MON extforcing_empmr_min         =   1.3750190494048E-05
(PID.TID 0000.0001) %MON extforcing_empmr_mean        =   4.1025405562298E-05
(PID.TID 0000.0001) %MON extforcing_empmr_sd          =   1.1873178769737E-05
(PID.TID 0000.0001) %MON extforcing_empmr_del2        =   2.2928655708299E-06
(PID.TID 0000.0001) %MON advcfl_uvel_max              =   3.5864618723607E-03
(PID.TID 0000.0001) %MON advcfl_vvel_max              =   2.2080072555347E-03
(PID.TID 0000.0001) %MON advcfl_wvel_max              =   4.3607270322439E-03
(PID.TID 0000.0001) %MON advcfl_W_hf_max              =   5.4509087903048E-03
(PID.TID 0000.0001) %MON pe_b_mean                    =   6.0700085653932E-06
(PID.TID 0000.0001) %MON ke_max                       =   2.1636952246764E-02
(PID.TID 0000.0001) %MON ke_mean                      =   6.4826890422015E-05
(PID.TID 0000.0001) %MON ke_vol                       =   3.6027486600263E+16
(PID.TID 0000.0001) %MON vort_r_min                   =  -3.9199797312460E-07
(PID.TID 0000.0001) %MON vort_r_max                   =   8.4612251683045E-07
(PID.TID 0000.0001) %MON vort_a_mean                  =   6.2114138811197E-05
(PID.TID 0000.0001) %MON vort_a_sd                    =   1.9250243232119E-05
(PID.TID 0000.0001) %MON vort_p_mean                  =   7.8095197769435E-05
(PID.TID 0000.0001) %MON vort_p_sd                    =   5.6520029255018E-05
(PID.TID 0000.0001) %MON surfExpan_theta_mean         =  -2.0745352525772E-06
(PID.TID 0000.0001) %MON surfExpan_salt_mean          =   2.6844635554922E-07
(PID.TID 0000.0001) // =======================================================
(PID.TID 0000.0001) // End MONITOR dynamic field statistics
(PID.TID 0000.0001) // =======================================================
(PID.TID 0000.0001) // =======================================================
(PID.TID 0000.0001) // Begin MONITOR ptracer field statistics
(PID.TID 0000.0001) // =======================================================
(PID.TID 0000.0001) %MON trcstat_ptracer01_max        =   3.7400742969234E+01
(PID.TID 0000.0001) %MON trcstat_ptracer01_min        =   3.4726788630779E+01
(PID.TID 0000.0001) %MON trcstat_ptracer01_mean       =   3.5157554826295E+01
(PID.TID 0000.0001) %MON trcstat_ptracer01_sd         =   4.1376283359595E-01
(PID.TID 0000.0001) %MON trcstat_ptracer01_del2       =   1.2642540795715E-02
(PID.TID 0000.0001) // =======================================================
(PID.TID 0000.0001) // End MONITOR ptracers field statistics
(PID.TID 0000.0001) // =======================================================
 Computing Diagnostic #    211  TRAC01       Counter:       1   Parms: SM P    MR      
S/R EXTERNAL_FIELDS_LOAD: Reading new data:    2    3        12  6.480000000000E+04
(PID.TID 0000.0001)  MDS_READ_FIELD: opening global file: kf_tx
(PID.TID 0000.0001)  MDS_READ_FIELD: opening global file: kf_tx
(PID.TID 0000.0001)  MDS_READ_FIELD: opening global file: kf_ty
(PID.TID 0000.0001)  MDS_READ_FIELD: opening global file: kf_ty
(PID.TID 0000.0001)  MDS_READ_FIELD: opening global file: kf_qnet
(PID.TID 0000.0001)  MDS_READ_FIELD: opening global file: kf_qnet
(PID.TID 0000.0001)  MDS_READ_FIELD: opening global file: kf_empmr
(PID.TID 0000.0001)  MDS_READ_FIELD: opening global file: kf_empmr
(PID.TID 0000.0001)  MDS_READ_FIELD: opening global file: kf_sst
(PID.TID 0000.0001)  MDS_READ_FIELD: opening global file: kf_sst
(PID.TID 0000.0001)  MDS_READ_FIELD: opening global file: kf_sss
(PID.TID 0000.0001)  MDS_READ_FIELD: opening global file: kf_sss
(PID.TID 0000.0001)  MDS_READ_FIELD: opening global file: kf_sw
(PID.TID 0000.0001)  MDS_READ_FIELD: opening global file: kf_sw
time,SST,SSS,fu,fv,Q,E-P,i0,i1,a,b =   6.4800E+04  0.0000E+00  0.0000E+00  0.0000E+00  0.0000E+00  0.0000E+00  0.0000E+00     2     3  0.0000E+00  1.0000E+00
time,fu0,fu1,fu =   6.4800E+04  0.0000E+00  0.0000E+00  0.0000E+00  0.000000000000000E+00  1.000000000000000E+00
 cg2d: Sum(rhs),rhsMax =   1.15463194561016E-14  5.42327295262517E-01
(PID.TID 0000.0001)                    cg2d_init_res =    9.04979668499102E-02
(PID.TID 0000.0001)                       cg2d_iters =    45
(PID.TID 0000.0001)                         cg2d_res =    9.07865991539398E-14
(PID.TID 0000.0001) // =======================================================
(PID.TID 0000.0001) // Begin MONITOR dynamic field statistics
(PID.TID 0000.0001) // =======================================================
(PID.TID 0000.0001) %MON time_tsnumber                =                    13
(PID.TID 0000.0001) %MON time_secondsf                =   6.8400000000000E+04
(PID.TID 0000.0001) %MON dynstat_eta_max              =   1.4665943152563E-01
(PID.TID 0000.0001) %MON dynstat_eta_min              =  -2.0570157392773E-01
(PID.TID 0000.0001) %MON dynstat_eta_mean             =  -7.1694582266470E-17
(PID.TID 0000.0001) %MON dynstat_eta_sd               =   7.1690023427515E-02
(PID.TID 0000.0001) %MON dynstat_eta_del2             =   4.5560260862478E-03
(PID.TID 0000.0001) %MON dynstat_uvel_max             =   4.5412974207214E-02
(PID.TID 0000.0001) %MON dynstat_uvel_min             =  -2.1621412501638E-01
(PID.TID 0000.0001) %MON dynstat_uvel_mean            =  -1.2068085565783E-04
(PID.TID 0000.0001) %MON dynstat_uvel_sd              =   9.7500879975492E-03
(PID.TID 0000.0001) %MON dynstat_uvel_del2            =   3.5066294252369E-03
(PID.TID 0000.0001) %MON dynstat_vvel_max             =   7.7574268578368E-02
(PID.TID 0000.0001) %MON dynstat_vvel_min             =  -1.3948807018175E-01
(PID.TID 0000.0001) %MON dynstat_vvel_mean            =   1.4533616444873E-04
(PID.TID 0000.0001) %MON dynstat_vvel_sd              =   7.0783482575640E-03
(PID.TID 0000.0001) %MON dynstat_vvel_del2            =   2.2275803211263E-03
(PID.TID 0000.0001) %MON dynstat_wvel_max             =   1.4703959320507E-04
(PID.TID 0000.0001) %MON dynstat_wvel_min             =  -1.5885671665128E-04
(PID.TID 0000.0001) %MON dynstat_wvel_mean            =   0.0000000000000E+00
(PID.TID 0000.0001) %MON dynstat_wvel_sd              =   3.2138980042656E-05
(PID.TID 0000.0001) %MON dynstat_wvel_del2            =   6.8099321458814E-06
(PID.TID 0000.0001) %MON dynstat_theta_max            =   2.6122758204700E+01
(PID.TID 0000.0001) %MON dynstat_theta_min            =   1.8064526517015E+00
(PID.TID 0000.0001) %MON dynstat_theta_mean           =   5.4786158608448E+00
(PID.TID 0000.0001) %MON dynstat_theta_sd             =   4.5930844508738E+00
(PID.TID 0000.0001) %MON dynstat_theta_del2           =   5.0838503312237E-02
(PID.TID 0000.0001) %MON dynstat_salt_max             =   3.7404028076551E+01
(PID.TID 0000.0001) %MON dynstat_salt_min             =   3.4726796968369E+01
(PID.TID 0000.0001) %MON dynstat_salt_mean            =   3.5157568921119E+01
(PID.TID 0000.0001) %MON dynstat_salt_sd              =   4.1380436968587E-01
(PID.TID 0000.0001) %MON dynstat_salt_del2            =   1.2644102935795E-02
(PID.TID 0000.0001) %MON extforcing_qnet_max          =   5.2073959350586E+01
(PID.TID 0000.0001) %MON extforcing_qnet_min          =  -1.6258977508545E+02
(PID.TID 0000.0001) %MON extforcing_qnet_mean         =  -7.4607262029879E+01
(PID.TID 0000.0001) %MON extforcing_qnet_sd           =   5.2254875943117E+01
(PID.TID 0000.0001) %MON extforcing_qnet_del2         =   8.1457465787239E+00
(PID.TID 0000.0001) %MON extforcing_qsw_max           =  -1.3453924560547E+02
(PID.TID 0000.0001) %MON extforcing_qsw_min           =  -3.1870358276367E+02
(PID.TID 0000.0001) %MON extforcing_qsw_mean          =  -2.4958199286982E+02
(PID.TID 0000.0001) %MON extforcing_qsw_sd            =   4.3110851683050E+01
(PID.TID 0000.0001) %MON extforcing_qsw_del2          =   5.9705705689679E+00
(PID.TID 0000.0001) %MON extforcing_empmr_max         =   6.8681426078854E-05
(PID.TID 0000.0001) %MON extforcing_empmr_min         =   1.3899902912229E-05
(PID.TID 0000.0001) %MON extforcing_empmr_mean        =   4.1414765110404E-05
(PID.TID 0000.0001) %MON extforcing_empmr_sd          =   1.1913145629620E-05
(PID.TID 0000.0001) %MON extforcing_empmr_del2        =   2.3063705960589E-06
(PID.TID 0000.0001) %MON advcfl_uvel_max              =   3.6605256301304E-03
(PID.TID 0000.0001) %MON advcfl_vvel_max              =   2.2583579097190E-03
(PID.TID 0000.0001) %MON advcfl_wvel_max              =   4.1681085818787E-03
(PID.TID 0000.0001) %MON advcfl_W_hf_max              =   5.2101357273483E-03
(PID.TID 0000.0001) %MON pe_b_mean                    =   6.1951175643809E-06
(PID.TID 0000.0001) %MON ke_max                       =   2.3322110796111E-02
(PID.TID 0000.0001) %MON ke_mean                      =   6.4828422998157E-05
(PID.TID 0000.0001) %MON ke_vol                       =   3.6027486600263E+16
(PID.TID 0000.0001) %MON vort_r_min                   =  -3.9356888549227E-07
(PID.TID 0000.0001) %MON vort_r_max                   =   8.3891579111392E-07
(PID.TID 0000.0001) %MON vort_a_mean                  =   6.2114138811197E-05
(PID.TID 0000.0001) %MON vort_a_sd                    =   1.9250182064585E-05
(PID.TID 0000.0001) %MON vort_p_mean                  =   7.8095197769435E-05
(PID.TID 0000.0001) %MON vort_p_sd                    =   5.6519599850971E-05
(PID.TID 0000.0001) %MON surfExpan_theta_mean         =  -6.3596786228646E-07
(PID.TID 0000.0001) %MON surfExpan_salt_mean          =   1.8025965507485E-07
(PID.TID 0000.0001) // =======================================================
(PID.TID 0000.0001) // End MONITOR dynamic field statistics
(PID.TID 0000.0001) // =======================================================
(PID.TID 0000.0001) // =======================================================
(PID.TID 0000.0001) // Begin MONITOR ptracer field statistics
(PID.TID 0000.0001) // =======================================================
(PID.TID 0000.0001) %MON trcstat_ptracer01_max        =   3.7400742969234E+01
(PID.TID 0000.0001) %MON trcstat_ptracer01_min        =   3.4726788630779E+01
(PID.TID 0000.0001) %MON trcstat_ptracer01_mean       =   3.5157554826295E+01
(PID.TID 0000.0001) %MON trcstat_ptracer01_sd         =   4.1376283359595E-01
(PID.TID 0000.0001) %MON trcstat_ptracer01_del2       =   1.2642540795715E-02
(PID.TID 0000.0001) // =======================================================
(PID.TID 0000.0001) // End MONITOR ptracers field statistics
(PID.TID 0000.0001) // =======================================================
time,SST,SSS,fu,fv,Q,E-P,i0,i1,a,b =   6.8400E+04  0.0000E+00  0.0000E+00  0.0000E+00  0.0000E+00  0.0000E+00  0.0000E+00     2     3  8.3333E-02  9.1667E-01
time,fu0,fu1,fu =   6.8400E+04  0.0000E+00  0.0000E+00  0.0000E+00  8.333333333333333E-02  9.166666666666666E-01
 cg2d: Sum(rhs),rhsMax =   1.06581410364015E-14  5.42148056493626E-01
(PID.TID 0000.0001)                    cg2d_init_res =    7.98496971271226E-02
(PID.TID 0000.0001)                       cg2d_iters =    45
(PID.TID 0000.0001)                         cg2d_res =    9.21070982288966E-14
(PID.TID 0000.0001) // =======================================================
(PID.TID 0000.0001) // Begin MONITOR dynamic field statistics
(PID.TID 0000.0001) // =======================================================
(PID.TID 0000.0001) %MON time_tsnumber                =                    14
(PID.TID 0000.0001) %MON time_secondsf                =   7.2000000000000E+04
(PID.TID 0000.0001) %MON dynstat_eta_max              =   1.4882509065573E-01
(PID.TID 0000.0001) %MON dynstat_eta_min              =  -2.0781379318902E-01
(PID.TID 0000.0001) %MON dynstat_eta_mean             =  -7.4452066199796E-17
(PID.TID 0000.0001) %MON dynstat_eta_sd               =   7.3271306946338E-02
(PID.TID 0000.0001) %MON dynstat_eta_del2             =   4.5773488905569E-03
(PID.TID 0000.0001) %MON dynstat_uvel_max             =   4.3169692120239E-02
(PID.TID 0000.0001) %MON dynstat_uvel_min             =  -2.1629026539354E-01
(PID.TID 0000.0001) %MON dynstat_uvel_mean            =  -1.5329261886873E-04
(PID.TID 0000.0001) %MON dynstat_uvel_sd              =   9.7300199911166E-03
(PID.TID 0000.0001) %MON dynstat_uvel_del2            =   3.3508208228049E-03
(PID.TID 0000.0001) %MON dynstat_vvel_max             =   8.1184233148022E-02
(PID.TID 0000.0001) %MON dynstat_vvel_min             =  -1.4085077002977E-01
(PID.TID 0000.0001) %MON dynstat_vvel_mean            =  -1.6654896108248E-05
(PID.TID 0000.0001) %MON dynstat_vvel_sd              =   6.9440769077708E-03
(PID.TID 0000.0001) %MON dynstat_vvel_del2            =   2.3499086478447E-03
(PID.TID 0000.0001) %MON dynstat_wvel_max             =   1.4101217720932E-04
(PID.TID 0000.0001) %MON dynstat_wvel_min             =  -1.6474324946162E-04
(PID.TID 0000.0001) %MON dynstat_wvel_mean            =  -6.7528723154006E-22
(PID.TID 0000.0001) %MON dynstat_wvel_sd              =   3.1692437222568E-05
(PID.TID 0000.0001) %MON dynstat_wvel_del2            =   6.9610511164875E-06
(PID.TID 0000.0001) %MON dynstat_theta_max            =   2.6129240964908E+01
(PID.TID 0000.0001) %MON dynstat_theta_min            =   1.8064541254609E+00
(PID.TID 0000.0001) %MON dynstat_theta_mean           =   5.4786318374702E+00
(PID.TID 0000.0001) %MON dynstat_theta_sd             =   4.5931378699935E+00
(PID.TID 0000.0001) %MON dynstat_theta_del2           =   5.0902472734129E-02
(PID.TID 0000.0001) %MON dynstat_salt_max             =   3.7404420338703E+01
(PID.TID 0000.0001) %MON dynstat_salt_min             =   3.4726800275781E+01
(PID.TID 0000.0001) %MON dynstat_salt_mean            =   3.5157570160817E+01
(PID.TID 0000.0001) %MON dynstat_salt_sd              =   4.1380759985000E-01
(PID.TID 0000.0001) %MON dynstat_salt_del2            =   1.2647544012255E-02
(PID.TID 0000.0001) %MON extforcing_qnet_max          =   5.1977971394857E+01
(PID.TID 0000.0001) %MON extforcing_qnet_min          =  -1.6385988362630E+02
(PID.TID 0000.0001) %MON extforcing_qnet_mean         =  -7.3651586729899E+01
(PID.TID 0000.0001) %MON extforcing_qnet_sd           =   5.1704387965704E+01
(PID.TID 0000.0001) %MON extforcing_qnet_del2         =   8.0395881186174E+00
(PID.TID 0000.0001) %MON extforcing_qsw_max           =  -1.3404340108236E+02
(PID.TID 0000.0001) %MON extforcing_qsw_min           =  -3.1842380015055E+02
(PID.TID 0000.0001) %MON extforcing_qsw_mean          =  -2.5003001626694E+02
(PID.TID 0000.0001) %MON extforcing_qsw_sd            =   4.2766618166345E+01
(PID.TID 0000.0001) %MON extforcing_qsw_del2          =   5.8008702815264E+00
(PID.TID 0000.0001) %MON extforcing_empmr_max         =   6.8503168801470E-05
(PID.TID 0000.0001) %MON extforcing_empmr_min         =   1.3984636391040E-05
(PID.TID 0000.0001) %MON extforcing_empmr_mean        =   4.1836037621644E-05
(PID.TID 0000.0001) %MON extforcing_empmr_sd          =   1.1816049545074E-05
(PID.TID 0000.0001) %MON extforcing_empmr_del2        =   2.2987105901136E-06
(PID.TID 0000.0001) %MON advcfl_uvel_max              =   3.6618146939325E-03
(PID.TID 0000.0001) %MON advcfl_vvel_max              =   2.2804204701684E-03
(PID.TID 0000.0001) %MON advcfl_wvel_max              =   3.9857311515845E-03
(PID.TID 0000.0001) %MON advcfl_W_hf_max              =   4.9821639394806E-03
(PID.TID 0000.0001) %MON pe_b_mean                    =   6.4714259200036E-06
(PID.TID 0000.0001) %MON ke_max                       =   2.4429098029971E-02
(PID.TID 0000.0001) %MON ke_mean                      =   6.3820240712814E-05
(PID.TID 0000.0001) %MON ke_vol                       =   3.6027486600263E+16
(PID.TID 0000.0001) %MON vort_r_min                   =  -4.4882861460095E-07
(PID.TID 0000.0001) %MON vort_r_max                   =   8.2675361694913E-07
(PID.TID 0000.0001) %MON vort_a_mean                  =   6.2114138811197E-05
(PID.TID 0000.0001) %MON vort_a_sd                    =   1.9250151785287E-05
(PID.TID 0000.0001) %MON vort_p_mean                  =   7.8095197769435E-05
(PID.TID 0000.0001) %MON vort_p_sd                    =   5.6519400584148E-05
(PID.TID 0000.0001) %MON surfExpan_theta_mean         =   6.0241408296269E-07
(PID.TID 0000.0001) %MON surfExpan_salt_mean          =   6.5535370356437E-08
(PID.TID 0000.0001) // =======================================================
(PID.TID 0000.0001) // End MONITOR dynamic field statistics
(PID.TID 0000.0001) // =======================================================
(PID.TID 0000.0001) // =======================================================
(PID.TID 0000.0001) // Begin MONITOR ptracer field statistics
(PID.TID 0000.0001) // =======================================================
(PID.TID 0000.0001) %MON trcstat_ptracer01_max        =   3.7400742969234E+01
(PID.TID 0000.0001) %MON trcstat_ptracer01_min        =   3.4726788630779E+01
(PID.TID 0000.0001) %MON trcstat_ptracer01_mean       =   3.5157554826295E+01
(PID.TID 0000.0001) %MON trcstat_ptracer01_sd         =   4.1376283359595E-01
(PID.TID 0000.0001) %MON trcstat_ptracer01_del2       =   1.2642540795715E-02
(PID.TID 0000.0001) // =======================================================
(PID.TID 0000.0001) // End MONITOR ptracers field statistics
(PID.TID 0000.0001) // =======================================================
time,SST,SSS,fu,fv,Q,E-P,i0,i1,a,b =   7.2000E+04  0.0000E+00  0.0000E+00  0.0000E+00  0.0000E+00  0.0000E+00  0.0000E+00     2     3  1.6667E-01  8.3333E-01
time,fu0,fu1,fu =   7.2000E+04  0.0000E+00  0.0000E+00  0.0000E+00  1.666666666666667E-01  8.333333333333334E-01
 cg2d: Sum(rhs),rhsMax =   1.68753899743024E-14  5.44058860827847E-01
(PID.TID 0000.0001)                    cg2d_init_res =    8.31273589875609E-02
(PID.TID 0000.0001)                       cg2d_iters =    45
(PID.TID 0000.0001)                         cg2d_res =    6.49967569296362E-14
(PID.TID 0000.0001) // =======================================================
(PID.TID 0000.0001) // Begin MONITOR dynamic field statistics
(PID.TID 0000.0001) // =======================================================
(PID.TID 0000.0001) %MON time_tsnumber                =                    15
(PID.TID 0000.0001) %MON time_secondsf                =   7.5600000000000E+04
(PID.TID 0000.0001) %MON dynstat_eta_max              =   1.5123173119081E-01
(PID.TID 0000.0001) %MON dynstat_eta_min              =  -2.1216359938366E-01
(PID.TID 0000.0001) %MON dynstat_eta_mean             =  -1.0478438946638E-16
(PID.TID 0000.0001) %MON dynstat_eta_sd               =   7.5138834337960E-02
(PID.TID 0000.0001) %MON dynstat_eta_del2             =   4.6066078729195E-03
(PID.TID 0000.0001) %MON dynstat_uvel_max             =   3.9660728236443E-02
(PID.TID 0000.0001) %MON dynstat_uvel_min             =  -2.1975930019573E-01
(PID.TID 0000.0001) %MON dynstat_uvel_mean            =  -1.5630637239724E-04
(PID.TID 0000.0001) %MON dynstat_uvel_sd              =   9.6185690202684E-03
(PID.TID 0000.0001) %MON dynstat_uvel_del2            =   3.1307754762621E-03
(PID.TID 0000.0001) %MON dynstat_vvel_max             =   8.4260380204252E-02
(PID.TID 0000.0001) %MON dynstat_vvel_min             =  -1.4031001844731E-01
(PID.TID 0000.0001) %MON dynstat_vvel_mean            =  -1.2697641848996E-04
(PID.TID 0000.0001) %MON dynstat_vvel_sd              =   6.7753833313808E-03
(PID.TID 0000.0001) %MON dynstat_vvel_del2            =   2.4388810026728E-03
(PID.TID 0000.0001) %MON dynstat_wvel_max             =   1.3253762030654E-04
(PID.TID 0000.0001) %MON dynstat_wvel_min             =  -1.6914247528172E-04
(PID.TID 0000.0001) %MON dynstat_wvel_mean            =   6.7528723154006E-22
(PID.TID 0000.0001) %MON dynstat_wvel_sd              =   3.1008900731021E-05
(PID.TID 0000.0001) %MON dynstat_wvel_del2            =   6.9537953788165E-06
(PID.TID 0000.0001) %MON dynstat_theta_max            =   2.6135558998581E+01
(PID.TID 0000.0001) %MON dynstat_theta_min            =   1.8064557341757E+00
(PID.TID 0000.0001) %MON dynstat_theta_mean           =   5.4786466162443E+00
(PID.TID 0000.0001) %MON dynstat_theta_sd             =   4.5931868555051E+00
(PID.TID 0000.0001) %MON dynstat_theta_del2           =   5.0975731358813E-02
(PID.TID 0000.0001) %MON dynstat_salt_max             =   3.7404813225406E+01
(PID.TID 0000.0001) %MON dynstat_salt_min             =   3.4726804481880E+01
(PID.TID 0000.0001) %MON dynstat_salt_mean            =   3.5157571528171E+01
(PID.TID 0000.0001) %MON dynstat_salt_sd              =   4.1381116224929E-01
(PID.TID 0000.0001) %MON dynstat_salt_del2            =   1.2650407414533E-02
(PID.TID 0000.0001) %MON extforcing_qnet_max          =   5.1881983439128E+01
(PID.TID 0000.0001) %MON extforcing_qnet_min          =  -1.6512999216715E+02
(PID.TID 0000.0001) %MON extforcing_qnet_mean         =  -7.2695911429919E+01
(PID.TID 0000.0001) %MON extforcing_qnet_sd           =   5.1206831276043E+01
(PID.TID 0000.0001) %MON extforcing_qnet_del2         =   7.9459580138008E+00
(PID.TID 0000.0001) %MON extforcing_qsw_max           =  -1.3354755655924E+02
(PID.TID 0000.0001) %MON extforcing_qsw_min           =  -3.1814401753743E+02
(PID.TID 0000.0001) %MON extforcing_qsw_mean          =  -2.5047803966406E+02
(PID.TID 0000.0001) %MON extforcing_qsw_sd            =   4.2471564939527E+01
(PID.TID 0000.0001) %MON extforcing_qsw_del2          =   5.6487943276592E+00
(PID.TID 0000.0001) %MON extforcing_empmr_max         =   6.8324911524087E-05
(PID.TID 0000.0001) %MON extforcing_empmr_min         =   1.4069369869851E-05
(PID.TID 0000.0001) %MON extforcing_empmr_mean        =   4.2257310132885E-05
(PID.TID 0000.0001) %MON extforcing_empmr_sd          =   1.1736454149462E-05
(PID.TID 0000.0001) %MON extforcing_empmr_del2        =   2.2961946400204E-06
(PID.TID 0000.0001) %MON advcfl_uvel_max              =   3.7021118540474E-03
(PID.TID 0000.0001) %MON advcfl_vvel_max              =   2.2716655235134E-03
(PID.TID 0000.0001) %MON advcfl_wvel_max              =   4.1730302031253E-03
(PID.TID 0000.0001) %MON advcfl_W_hf_max              =   5.2162877539067E-03
(PID.TID 0000.0001) %MON pe_b_mean                    =   6.8055152970820E-06
(PID.TID 0000.0001) %MON ke_max                       =   2.5250207947700E-02
(PID.TID 0000.0001) %MON ke_mean                      =   6.1840049790419E-05
(PID.TID 0000.0001) %MON ke_vol                       =   3.6027486600263E+16
(PID.TID 0000.0001) %MON vort_r_min                   =  -4.8538693601720E-07
(PID.TID 0000.0001) %MON vort_r_max                   =   8.1001037643844E-07
(PID.TID 0000.0001) %MON vort_a_mean                  =   6.2114138811197E-05
(PID.TID 0000.0001) %MON vort_a_sd                    =   1.9250145724071E-05
(PID.TID 0000.0001) %MON vort_p_mean                  =   7.8095197769435E-05
(PID.TID 0000.0001) %MON vort_p_sd                    =   5.6519481679296E-05
(PID.TID 0000.0001) %MON surfExpan_theta_mean         =   1.3563135968543E-06
(PID.TID 0000.0001) %MON surfExpan_salt_mean          =  -2.8231936484062E-08
(PID.TID 0000.0001) // =======================================================
(PID.TID 0000.0001) // End MONITOR dynamic field statistics
(PID.TID 0000.0001) // =======================================================
(PID.TID 0000.0001) // =======================================================
(PID.TID 0000.0001) // Begin MONITOR ptracer field statistics
(PID.TID 0000.0001) // =======================================================
(PID.TID 0000.0001) %MON trcstat_ptracer01_max        =   3.7400904823655E+01
(PID.TID 0000.0001) %MON trcstat_ptracer01_min        =   3.4726800909072E+01
(PID.TID 0000.0001) %MON trcstat_ptracer01_mean       =   3.5157554235456E+01
(PID.TID 0000.0001) %MON trcstat_ptracer01_sd         =   4.1375898485497E-01
(PID.TID 0000.0001) %MON trcstat_ptracer01_del2       =   1.2653677573652E-02
(PID.TID 0000.0001) // =======================================================
(PID.TID 0000.0001) // End MONITOR ptracers field statistics
(PID.TID 0000.0001) // =======================================================
 Computing Diagnostic #    211  TRAC01       Counter:       1   Parms: SM P    MR      
time,SST,SSS,fu,fv,Q,E-P,i0,i1,a,b =   7.5600E+04  0.0000E+00  0.0000E+00  0.0000E+00  0.0000E+00  0.0000E+00  0.0000E+00     2     3  2.5000E-01  7.5000E-01
time,fu0,fu1,fu =   7.5600E+04  0.0000E+00  0.0000E+00  0.0000E+00  2.500000000000000E-01  7.500000000000000E-01
 cg2d: Sum(rhs),rhsMax =   2.30926389122033E-14  5.47131320499903E-01
(PID.TID 0000.0001)                    cg2d_init_res =    8.45356814450641E-02
(PID.TID 0000.0001)                       cg2d_iters =    44
(PID.TID 0000.0001)                         cg2d_res =    7.64520287276549E-14
(PID.TID 0000.0001) // =======================================================
(PID.TID 0000.0001) // Begin MONITOR dynamic field statistics
(PID.TID 0000.0001) // =======================================================
(PID.TID 0000.0001) %MON time_tsnumber                =                    16
(PID.TID 0000.0001) %MON time_secondsf                =   7.9200000000000E+04
(PID.TID 0000.0001) %MON dynstat_eta_max              =   1.5313509265488E-01
(PID.TID 0000.0001) %MON dynstat_eta_min              =  -2.1732404189133E-01
(PID.TID 0000.0001) %MON dynstat_eta_mean             =  -9.9269421599728E-17
(PID.TID 0000.0001) %MON dynstat_eta_sd               =   7.6875513230537E-02
(PID.TID 0000.0001) %MON dynstat_eta_del2             =   4.6440550218149E-03
(PID.TID 0000.0001) %MON dynstat_uvel_max             =   3.5740422292352E-02
(PID.TID 0000.0001) %MON dynstat_uvel_min             =  -2.2185614587695E-01
(PID.TID 0000.0001) %MON dynstat_uvel_mean            =  -1.3770723555332E-04
(PID.TID 0000.0001) %MON dynstat_uvel_sd              =   9.4274033937413E-03
(PID.TID 0000.0001) %MON dynstat_uvel_del2            =   2.8678603523858E-03
(PID.TID 0000.0001) %MON dynstat_vvel_max             =   9.1437481647399E-02
(PID.TID 0000.0001) %MON dynstat_vvel_min             =  -1.3784458202735E-01
(PID.TID 0000.0001) %MON dynstat_vvel_mean            =  -1.6855994336452E-04
(PID.TID 0000.0001) %MON dynstat_vvel_sd              =   6.5792222322736E-03
(PID.TID 0000.0001) %MON dynstat_vvel_del2            =   2.4628233844824E-03
(PID.TID 0000.0001) %MON dynstat_wvel_max             =   1.2183508994662E-04
(PID.TID 0000.0001) %MON dynstat_wvel_min             =  -1.7201993479870E-04
(PID.TID 0000.0001) %MON dynstat_wvel_mean            =  -4.5019148769337E-22
(PID.TID 0000.0001) %MON dynstat_wvel_sd              =   2.9930263694880E-05
(PID.TID 0000.0001) %MON dynstat_wvel_del2            =   6.7429403123868E-06
(PID.TID 0000.0001) %MON dynstat_theta_max            =   2.6141741054830E+01
(PID.TID 0000.0001) %MON dynstat_theta_min            =   1.8064575284307E+00
(PID.TID 0000.0001) %MON dynstat_theta_mean           =   5.4786607766978E+00
(PID.TID 0000.0001) %MON dynstat_theta_sd             =   4.5932335699679E+00
(PID.TID 0000.0001) %MON dynstat_theta_del2           =   5.1053207505755E-02
(PID.TID 0000.0001) %MON dynstat_salt_max             =   3.7405205888365E+01
(PID.TID 0000.0001) %MON dynstat_salt_min             =   3.4726809413419E+01
(PID.TID 0000.0001) %MON dynstat_salt_mean            =   3.5157572979474E+01
(PID.TID 0000.0001) %MON dynstat_salt_sd              =   4.1381496279581E-01
(PID.TID 0000.0001) %MON dynstat_salt_del2            =   1.2652859263100E-02
(PID.TID 0000.0001) %MON extforcing_qnet_max          =   5.1785995483398E+01
(PID.TID 0000.0001) %MON extforcing_qnet_min          =  -1.6640010070801E+02
(PID.TID 0000.0001) %MON extforcing_qnet_mean         =  -7.1740236129939E+01
(PID.TID 0000.0001) %MON extforcing_qnet_sd           =   5.0763762302510E+01
(PID.TID 0000.0001) %MON extforcing_qnet_del2         =   7.8684455467562E+00
(PID.TID 0000.0001) %MON extforcing_qsw_max           =  -1.3305171203613E+02
(PID.TID 0000.0001) %MON extforcing_qsw_min           =  -3.1786423492432E+02
(PID.TID 0000.0001) %MON extforcing_qsw_mean          =  -2.5092606306118E+02
(PID.TID 0000.0001) %MON extforcing_qsw_sd            =   4.2226722936044E+01
(PID.TID 0000.0001) %MON extforcing_qsw_del2          =   5.5239140646798E+00
(PID.TID 0000.0001) %MON extforcing_empmr_max         =   6.8301180591135E-05
(PID.TID 0000.0001) %MON extforcing_empmr_min         =   1.4154103348663E-05
(PID.TID 0000.0001) %MON extforcing_empmr_mean        =   4.2678582644125E-05
(PID.TID 0000.0001) %MON extforcing_empmr_sd          =   1.1674717394650E-05
(PID.TID 0000.0001) %MON extforcing_empmr_del2        =   2.2951058347733E-06
(PID.TID 0000.0001) %MON advcfl_uvel_max              =   3.7186336177841E-03
(PID.TID 0000.0001) %MON advcfl_vvel_max              =   2.2317492938841E-03
(PID.TID 0000.0001) %MON advcfl_wvel_max              =   4.5718507434104E-03
(PID.TID 0000.0001) %MON advcfl_W_hf_max              =   5.7148134292630E-03
(PID.TID 0000.0001) %MON pe_b_mean                    =   7.1237417027977E-06
(PID.TID 0000.0001) %MON ke_max                       =   2.5811935154110E-02
(PID.TID 0000.0001) %MON ke_mean                      =   5.9052887775169E-05
(PID.TID 0000.0001) %MON ke_vol                       =   3.6027486600263E+16
(PID.TID 0000.0001) %MON vort_r_min                   =  -4.9921015001185E-07
(PID.TID 0000.0001) %MON vort_r_max                   =   7.9656433766433E-07
(PID.TID 0000.0001) %MON vort_a_mean                  =   6.2114138811197E-05
(PID.TID 0000.0001) %MON vort_a_sd                    =   1.9250157135962E-05
(PID.TID 0000.0001) %MON vort_p_mean                  =   7.8095197769435E-05
(PID.TID 0000.0001) %MON vort_p_sd                    =   5.6519844042706E-05
(PID.TID 0000.0001) %MON surfExpan_theta_mean         =   1.5435283159734E-06
(PID.TID 0000.0001) %MON surfExpan_salt_mean          =  -7.8758326311016E-08
(PID.TID 0000.0001) // =======================================================
(PID.TID 0000.0001) // End MONITOR dynamic field statistics
(PID.TID 0000.0001) // =======================================================
(PID.TID 0000.0001) // =======================================================
(PID.TID 0000.0001) // Begin MONITOR ptracer field statistics
(PID.TID 0000.0001) // =======================================================
(PID.TID 0000.0001) %MON trcstat_ptracer01_max        =   3.7400904823655E+01
(PID.TID 0000.0001) %MON trcstat_ptracer01_min        =   3.4726800909072E+01
(PID.TID 0000.0001) %MON trcstat_ptracer01_mean       =   3.5157554235456E+01
(PID.TID 0000.0001) %MON trcstat_ptracer01_sd         =   4.1375898485497E-01
(PID.TID 0000.0001) %MON trcstat_ptracer01_del2       =   1.2653677573652E-02
(PID.TID 0000.0001) // =======================================================
(PID.TID 0000.0001) // End MONITOR ptracers field statistics
(PID.TID 0000.0001) // =======================================================
time,SST,SSS,fu,fv,Q,E-P,i0,i1,a,b =   7.9200E+04  0.0000E+00  0.0000E+00  0.0000E+00  0.0000E+00  0.0000E+00  0.0000E+00     2     3  3.3333E-01  6.6667E-01
time,fu0,fu1,fu =   7.9200E+04  0.0000E+00  0.0000E+00  0.0000E+00  3.333333333333333E-01  6.666666666666667E-01
 cg2d: Sum(rhs),rhsMax =   2.13162820728030E-14  5.50172975118855E-01
(PID.TID 0000.0001)                    cg2d_init_res =    7.85251032475309E-02
(PID.TID 0000.0001)                       cg2d_iters =    44
(PID.TID 0000.0001)                         cg2d_res =    6.41402111052913E-14
(PID.TID 0000.0001) // =======================================================
(PID.TID 0000.0001) // Begin MONITOR dynamic field statistics
(PID.TID 0000.0001) // =======================================================
(PID.TID 0000.0001) %MON time_tsnumber                =                    17
(PID.TID 0000.0001) %MON time_secondsf                =   8.2800000000000E+04
(PID.TID 0000.0001) %MON dynstat_eta_max              =   1.5411880579259E-01
(PID.TID 0000.0001) %MON dynstat_eta_min              =  -2.2193090233408E-01
(PID.TID 0000.0001) %MON dynstat_eta_mean             =  -1.0478438946638E-16
(PID.TID 0000.0001) %MON dynstat_eta_sd               =   7.8159340989651E-02
(PID.TID 0000.0001) %MON dynstat_eta_del2             =   4.6868209998677E-03
(PID.TID 0000.0001) %MON dynstat_uvel_max             =   3.6342569066833E-02
(PID.TID 0000.0001) %MON dynstat_uvel_min             =  -2.2214542583738E-01
(PID.TID 0000.0001) %MON dynstat_uvel_mean            =  -1.0627349851346E-04
(PID.TID 0000.0001) %MON dynstat_uvel_sd              =   9.1659191628136E-03
(PID.TID 0000.0001) %MON dynstat_uvel_del2            =   2.5866382556470E-03
(PID.TID 0000.0001) %MON dynstat_vvel_max             =   1.0190979461150E-01
(PID.TID 0000.0001) %MON dynstat_vvel_min             =  -1.3338888902528E-01
(PID.TID 0000.0001) %MON dynstat_vvel_mean            =  -1.4911639645239E-04
(PID.TID 0000.0001) %MON dynstat_vvel_sd              =   6.3739551630468E-03
(PID.TID 0000.0001) %MON dynstat_vvel_del2            =   2.4039062336568E-03
(PID.TID 0000.0001) %MON dynstat_wvel_max             =   1.0921804094719E-04
(PID.TID 0000.0001) %MON dynstat_wvel_min             =  -1.7331218054563E-04
(PID.TID 0000.0001) %MON dynstat_wvel_mean            =  -1.8007659507735E-21
(PID.TID 0000.0001) %MON dynstat_wvel_sd              =   2.8460357958027E-05
(PID.TID 0000.0001) %MON dynstat_wvel_del2            =   6.3072712222232E-06
(PID.TID 0000.0001) %MON dynstat_theta_max            =   2.6147817030173E+01
(PID.TID 0000.0001) %MON dynstat_theta_min            =   1.8064595420681E+00
(PID.TID 0000.0001) %MON dynstat_theta_mean           =   5.4786748636683E+00
(PID.TID 0000.0001) %MON dynstat_theta_sd             =   4.5932800338610E+00
(PID.TID 0000.0001) %MON dynstat_theta_del2           =   5.1129060230818E-02
(PID.TID 0000.0001) %MON dynstat_salt_max             =   3.7405597400823E+01
(PID.TID 0000.0001) %MON dynstat_salt_min             =   3.4726814910620E+01
(PID.TID 0000.0001) %MON dynstat_salt_mean            =   3.5157574464731E+01
(PID.TID 0000.0001) %MON dynstat_salt_sd              =   4.1381888325218E-01
(PID.TID 0000.0001) %MON dynstat_salt_del2            =   1.2655106135136E-02
(PID.TID 0000.0001) %MON extforcing_qnet_max          =   5.2881464640299E+01
(PID.TID 0000.0001) %MON extforcing_qnet_min          =  -1.6767020924886E+02
(PID.TID 0000.0001) %MON extforcing_qnet_mean         =  -7.0784560829959E+01
(PID.TID 0000.0001) %MON extforcing_qnet_sd           =   5.0376618745466E+01
(PID.TID 0000.0001) %MON extforcing_qnet_del2         =   7.8122522952326E+00
(PID.TID 0000.0001) %MON extforcing_qsw_max           =  -1.3255586751302E+02
(PID.TID 0000.0001) %MON extforcing_qsw_min           =  -3.1758445231120E+02
(PID.TID 0000.0001) %MON extforcing_qsw_mean          =  -2.5137408645830E+02
(PID.TID 0000.0001) %MON extforcing_qsw_sd            =   4.2032969606024E+01
(PID.TID 0000.0001) %MON extforcing_qsw_del2          =   5.4213342525689E+00
(PID.TID 0000.0001) %MON extforcing_empmr_max         =   6.8865692161542E-05
(PID.TID 0000.0001) %MON extforcing_empmr_min         =   1.4238836827474E-05
(PID.TID 0000.0001) %MON extforcing_empmr_mean        =   4.3099855155366E-05
(PID.TID 0000.0001) %MON extforcing_empmr_sd          =   1.1631123659352E-05
(PID.TID 0000.0001) %MON extforcing_empmr_del2        =   2.2961928428759E-06
(PID.TID 0000.0001) %MON advcfl_uvel_max              =   3.7234823731861E-03
(PID.TID 0000.0001) %MON advcfl_vvel_max              =   2.1596101530860E-03
(PID.TID 0000.0001) %MON advcfl_wvel_max              =   4.8589245157913E-03
(PID.TID 0000.0001) %MON advcfl_W_hf_max              =   6.0736556447391E-03
(PID.TID 0000.0001) %MON pe_b_mean                    =   7.3636626762248E-06
(PID.TID 0000.0001) %MON ke_max                       =   2.6120881025741E-02
(PID.TID 0000.0001) %MON ke_mean                      =   5.5689652747998E-05
(PID.TID 0000.0001) %MON ke_vol                       =   3.6027486600263E+16
(PID.TID 0000.0001) %MON vort_r_min                   =  -4.8996553931167E-07
(PID.TID 0000.0001) %MON vort_r_max                   =   7.8598446473605E-07
(PID.TID 0000.0001) %MON vort_a_mean                  =   6.2114138811197E-05
(PID.TID 0000.0001) %MON vort_a_sd                    =   1.9250178837093E-05
(PID.TID 0000.0001) %MON vort_p_mean                  =   7.8095197769435E-05
(PID.TID 0000.0001) %MON vort_p_sd                    =   5.6520442657643E-05
(PID.TID 0000.0001) %MON surfExpan_theta_mean         =   1.2588055923137E-06
(PID.TID 0000.0001) %MON surfExpan_salt_mean          =  -8.5826897071690E-08
(PID.TID 0000.0001) // =======================================================
(PID.TID 0000.0001) // End MONITOR dynamic field statistics
(PID.TID 0000.0001) // =======================================================
(PID.TID 0000.0001) // =======================================================
(PID.TID 0000.0001) // Begin MONITOR ptracer field statistics
(PID.TID 0000.0001) // =======================================================
(PID.TID 0000.0001) %MON trcstat_ptracer01_max        =   3.7400904823655E+01
(PID.TID 0000.0001) %MON trcstat_ptracer01_min        =   3.4726800909072E+01
(PID.TID 0000.0001) %MON trcstat_ptracer01_mean       =   3.5157554235456E+01
(PID.TID 0000.0001) %MON trcstat_ptracer01_sd         =   4.1375898485497E-01
(PID.TID 0000.0001) %MON trcstat_ptracer01_del2       =   1.2653677573652E-02
(PID.TID 0000.0001) // =======================================================
(PID.TID 0000.0001) // End MONITOR ptracers field statistics
(PID.TID 0000.0001) // =======================================================
time,SST,SSS,fu,fv,Q,E-P,i0,i1,a,b =   8.2800E+04  0.0000E+00  0.0000E+00  0.0000E+00  0.0000E+00  0.0000E+00  0.0000E+00     2     3  4.1667E-01  5.8333E-01
time,fu0,fu1,fu =   8.2800E+04  0.0000E+00  0.0000E+00  0.0000E+00  4.166666666666667E-01  5.833333333333333E-01
 cg2d: Sum(rhs),rhsMax =   2.30926389122033E-14  5.52134137043865E-01
(PID.TID 0000.0001)                    cg2d_init_res =    6.93698118584833E-02
(PID.TID 0000.0001)                       cg2d_iters =    44
(PID.TID 0000.0001)                         cg2d_res =    8.42748505381595E-14
(PID.TID 0000.0001) // =======================================================
(PID.TID 0000.0001) // Begin MONITOR dynamic field statistics
(PID.TID 0000.0001) // =======================================================
(PID.TID 0000.0001) %MON time_tsnumber                =                    18
(PID.TID 0000.0001) %MON time_secondsf                =   8.6400000000000E+04
(PID.TID 0000.0001) %MON dynstat_eta_max              =   1.5411472964653E-01
(PID.TID 0000.0001) %MON dynstat_eta_min              =  -2.2503845452250E-01
(PID.TID 0000.0001) %MON dynstat_eta_mean             =  -1.5166161633292E-16
(PID.TID 0000.0001) %MON dynstat_eta_sd               =   7.8804852146712E-02
(PID.TID 0000.0001) %MON dynstat_eta_del2             =   4.7306188143344E-03
(PID.TID 0000.0001) %MON dynstat_uvel_max             =   3.5176129905000E-02
(PID.TID 0000.0001) %MON dynstat_uvel_min             =  -2.2072178069254E-01
(PID.TID 0000.0001) %MON dynstat_uvel_mean            =  -7.1662166088537E-05
(PID.TID 0000.0001) %MON dynstat_uvel_sd              =   8.8491723216883E-03
(PID.TID 0000.0001) %MON dynstat_uvel_del2            =   2.3352996107313E-03
(PID.TID 0000.0001) %MON dynstat_vvel_max             =   1.1355148487866E-01
(PID.TID 0000.0001) %MON dynstat_vvel_min             =  -1.2720568958120E-01
(PID.TID 0000.0001) %MON dynstat_vvel_mean            =  -9.1509809225106E-05
(PID.TID 0000.0001) %MON dynstat_vvel_sd              =   6.1883130680040E-03
(PID.TID 0000.0001) %MON dynstat_vvel_del2            =   2.2808699486650E-03
(PID.TID 0000.0001) %MON dynstat_wvel_max             =   9.5061850706381E-05
(PID.TID 0000.0001) %MON dynstat_wvel_min             =  -1.7294864728306E-04
(PID.TID 0000.0001) %MON dynstat_wvel_mean            =   0.0000000000000E+00
(PID.TID 0000.0001) %MON dynstat_wvel_sd              =   2.6776524129683E-05
(PID.TID 0000.0001) %MON dynstat_wvel_del2            =   5.7814690524529E-06
(PID.TID 0000.0001) %MON dynstat_theta_max            =   2.6153809510170E+01
(PID.TID 0000.0001) %MON dynstat_theta_min            =   1.8064617927556E+00
(PID.TID 0000.0001) %MON dynstat_theta_mean           =   5.4786892443539E+00
(PID.TID 0000.0001) %MON dynstat_theta_sd             =   4.5933276066951E+00
(PID.TID 0000.0001) %MON dynstat_theta_del2           =   5.1205145831309E-02
(PID.TID 0000.0001) %MON dynstat_salt_max             =   3.7405987314587E+01
(PID.TID 0000.0001) %MON dynstat_salt_min             =   3.4726820871716E+01
(PID.TID 0000.0001) %MON dynstat_salt_mean            =   3.5157575945451E+01
(PID.TID 0000.0001) %MON dynstat_salt_sd              =   4.1382283051354E-01
(PID.TID 0000.0001) %MON dynstat_salt_del2            =   1.2656842563937E-02
(PID.TID 0000.0001) %MON extforcing_qnet_max          =   5.4347905476888E+01
(PID.TID 0000.0001) %MON extforcing_qnet_min          =  -1.6894031778971E+02
(PID.TID 0000.0001) %MON extforcing_qnet_mean         =  -6.9828885529979E+01
(PID.TID 0000.0001) %MON extforcing_qnet_sd           =   5.0046698479458E+01
(PID.TID 0000.0001) %MON extforcing_qnet_del2         =   7.7698886273138E+00
(PID.TID 0000.0001) %MON extforcing_qsw_max           =  -1.3206002298991E+02
(PID.TID 0000.0001) %MON extforcing_qsw_min           =  -3.1730466969808E+02
(PID.TID 0000.0001) %MON extforcing_qsw_mean          =  -2.5182210985542E+02
(PID.TID 0000.0001) %MON extforcing_qsw_sd            =   4.1891013837849E+01
(PID.TID 0000.0001) %MON extforcing_qsw_del2          =   5.3378500037984E+00
(PID.TID 0000.0001) %MON extforcing_empmr_max         =   6.9430203731950E-05
(PID.TID 0000.0001) %MON extforcing_empmr_min         =   1.4323570306285E-05
(PID.TID 0000.0001) %MON extforcing_empmr_mean        =   4.3521127666606E-05
(PID.TID 0000.0001) %MON extforcing_empmr_sd          =   1.1605877390574E-05
(PID.TID 0000.0001) %MON extforcing_empmr_del2        =   2.2998797237074E-06
(PID.TID 0000.0001) %MON advcfl_uvel_max              =   3.6996199975262E-03
(PID.TID 0000.0001) %MON advcfl_vvel_max              =   2.0595021126370E-03
(PID.TID 0000.0001) %MON advcfl_wvel_max              =   5.0240457465111E-03
(PID.TID 0000.0001) %MON advcfl_W_hf_max              =   6.2800571831389E-03
(PID.TID 0000.0001) %MON pe_b_mean                    =   7.4857966401843E-06
(PID.TID 0000.0001) %MON ke_max                       =   2.6174114315577E-02
(PID.TID 0000.0001) %MON ke_mean                      =   5.2087065085021E-05
(PID.TID 0000.0001) %MON ke_vol                       =   3.6027486600263E+16
(PID.TID 0000.0001) %MON vort_r_min                   =  -4.5964348370466E-07
(PID.TID 0000.0001) %MON vort_r_max                   =   7.7343660669064E-07
(PID.TID 0000.0001) %MON vort_a_mean                  =   6.2114138811197E-05
(PID.TID 0000.0001) %MON vort_a_sd                    =   1.9250203133498E-05
(PID.TID 0000.0001) %MON vort_p_mean                  =   7.8095197769435E-05
(PID.TID 0000.0001) %MON vort_p_sd                    =   5.6521196896187E-05
(PID.TID 0000.0001) %MON surfExpan_theta_mean         =   7.0393776182745E-07
(PID.TID 0000.0001) %MON surfExpan_salt_mean          =  -6.2328033886225E-08
(PID.TID 0000.0001) // =======================================================
(PID.TID 0000.0001) // End MONITOR dynamic field statistics
(PID.TID 0000.0001) // =======================================================
(PID.TID 0000.0001) // =======================================================
(PID.TID 0000.0001) // Begin MONITOR ptracer field statistics
(PID.TID 0000.0001) // =======================================================
(PID.TID 0000.0001) %MON trcstat_ptracer01_max        =   3.7401036499799E+01
(PID.TID 0000.0001) %MON trcstat_ptracer01_min        =   3.4726820334995E+01
(PID.TID 0000.0001) %MON trcstat_ptracer01_mean       =   3.5157554786387E+01
(PID.TID 0000.0001) %MON trcstat_ptracer01_sd         =   4.1375828814772E-01
(PID.TID 0000.0001) %MON trcstat_ptracer01_del2       =   1.2661144190461E-02
(PID.TID 0000.0001) // =======================================================
(PID.TID 0000.0001) // End MONITOR ptracers field statistics
(PID.TID 0000.0001) // =======================================================
 Computing Diagnostic #    211  TRAC01       Counter:       1   Parms: SM P    MR      
time,SST,SSS,fu,fv,Q,E-P,i0,i1,a,b =   8.6400E+04  0.0000E+00  0.0000E+00  0.0000E+00  0.0000E+00  0.0000E+00  0.0000E+00     2     3  5.0000E-01  5.0000E-01
time,fu0,fu1,fu =   8.6400E+04  0.0000E+00  0.0000E+00  0.0000E+00  5.000000000000000E-01  5.000000000000000E-01
 cg2d: Sum(rhs),rhsMax =   2.93098878501041E-14  5.52367071591311E-01
(PID.TID 0000.0001)                    cg2d_init_res =    6.30407987800063E-02
(PID.TID 0000.0001)                       cg2d_iters =    44
(PID.TID 0000.0001)                         cg2d_res =    9.19047373634956E-14
(PID.TID 0000.0001) // =======================================================
(PID.TID 0000.0001) // Begin MONITOR dynamic field statistics
(PID.TID 0000.0001) // =======================================================
(PID.TID 0000.0001) %MON time_tsnumber                =                    19
(PID.TID 0000.0001) %MON time_secondsf                =   9.0000000000000E+04
(PID.TID 0000.0001) %MON dynstat_eta_max              =   1.5333626231399E-01
(PID.TID 0000.0001) %MON dynstat_eta_min              =  -2.2631465846093E-01
(PID.TID 0000.0001) %MON dynstat_eta_mean             =  -1.5441910026624E-16
(PID.TID 0000.0001) %MON dynstat_eta_sd               =   7.8822402483316E-02
(PID.TID 0000.0001) %MON dynstat_eta_del2             =   4.7739183557729E-03
(PID.TID 0000.0001) %MON dynstat_uvel_max             =   3.2607055766856E-02
(PID.TID 0000.0001) %MON dynstat_uvel_min             =  -2.1770467219826E-01
(PID.TID 0000.0001) %MON dynstat_uvel_mean            =  -4.3122000404496E-05
(PID.TID 0000.0001) %MON dynstat_uvel_sd              =   8.4982336676551E-03
(PID.TID 0000.0001) %MON dynstat_uvel_del2            =   2.1487615250629E-03
(PID.TID 0000.0001) %MON dynstat_vvel_max             =   1.2374072090171E-01
(PID.TID 0000.0001) %MON dynstat_vvel_min             =  -1.2090333046206E-01
(PID.TID 0000.0001) %MON dynstat_vvel_mean            =  -2.2642166002835E-05
(PID.TID 0000.0001) %MON dynstat_vvel_sd              =   6.0524698217206E-03
(PID.TID 0000.0001) %MON dynstat_vvel_del2            =   2.1354518909713E-03
(PID.TID 0000.0001) %MON dynstat_wvel_max             =   7.9768594762782E-05
(PID.TID 0000.0001) %MON dynstat_wvel_min             =  -1.7107026666702E-04
(PID.TID 0000.0001) %MON dynstat_wvel_mean            =   2.2509574384669E-21
(PID.TID 0000.0001) %MON dynstat_wvel_sd              =   2.5189166399120E-05
(PID.TID 0000.0001) %MON dynstat_wvel_del2            =   5.3800148604311E-06
(PID.TID 0000.0001) %MON dynstat_theta_max            =   2.6159729852918E+01
(PID.TID 0000.0001) %MON dynstat_theta_min            =   1.8064642853830E+00
(PID.TID 0000.0001) %MON dynstat_theta_mean           =   5.4787040505625E+00
(PID.TID 0000.0001) %MON dynstat_theta_sd             =   4.5933767734243E+00
(PID.TID 0000.0001) %MON dynstat_theta_del2           =   5.1273179287195E-02
(PID.TID 0000.0001) %MON dynstat_salt_max             =   3.7406375915234E+01
(PID.TID 0000.0001) %MON dynstat_salt_min             =   3.4726827267857E+01
(PID.TID 0000.0001) %MON dynstat_salt_mean            =   3.5157577401523E+01
(PID.TID 0000.0001) %MON dynstat_salt_sd              =   4.1382675211220E-01
(PID.TID 0000.0001) %MON dynstat_salt_del2            =   1.2658337878185E-02
(PID.TID 0000.0001) %MON extforcing_qnet_max          =   5.5814346313477E+01
(PID.TID 0000.0001) %MON extforcing_qnet_min          =  -1.7021042633057E+02
(PID.TID 0000.0001) %MON extforcing_qnet_mean         =  -6.8873210229999E+01
(PID.TID 0000.0001) %MON extforcing_qnet_sd           =   4.9775139382117E+01
(PID.TID 0000.0001) %MON extforcing_qnet_del2         =   7.7450188603894E+00
(PID.TID 0000.0001) %MON extforcing_qsw_max           =  -1.3156417846680E+02
(PID.TID 0000.0001) %MON extforcing_qsw_min           =  -3.1702488708496E+02
(PID.TID 0000.0001) %MON extforcing_qsw_mean          =  -2.5227013325255E+02
(PID.TID 0000.0001) %MON extforcing_qsw_sd            =   4.1801383341981E+01
(PID.TID 0000.0001) %MON extforcing_qsw_del2          =   5.2682711408643E+00
(PID.TID 0000.0001) %MON extforcing_empmr_max         =   6.9994715302357E-05
(PID.TID 0000.0001) %MON extforcing_empmr_min         =   1.4408303785096E-05
(PID.TID 0000.0001) %MON extforcing_empmr_mean        =   4.3942400177846E-05
(PID.TID 0000.0001) %MON extforcing_empmr_sd          =   1.1599098392661E-05
(PID.TID 0000.0001) %MON extforcing_empmr_del2        =   2.3051954866864E-06
(PID.TID 0000.0001) %MON advcfl_uvel_max              =   3.6490488446245E-03
(PID.TID 0000.0001) %MON advcfl_vvel_max              =   2.0034031257195E-03
(PID.TID 0000.0001) %MON advcfl_wvel_max              =   5.0993241118511E-03
(PID.TID 0000.0001) %MON advcfl_W_hf_max              =   6.3741551398139E-03
(PID.TID 0000.0001) %MON pe_b_mean                    =   7.4891312795268E-06
(PID.TID 0000.0001) %MON ke_max                       =   2.5965402493584E-02
(PID.TID 0000.0001) %MON ke_mean                      =   4.8610535630972E-05
(PID.TID 0000.0001) %MON ke_vol                       =   3.6027486600263E+16
(PID.TID 0000.0001) %MON vort_r_min                   =  -4.1226795062192E-07
(PID.TID 0000.0001) %MON vort_r_max                   =   7.5904369120015E-07
(PID.TID 0000.0001) %MON vort_a_mean                  =   6.2114138811197E-05
(PID.TID 0000.0001) %MON vort_a_sd                    =   1.9250222768776E-05
(PID.TID 0000.0001) %MON vort_p_mean                  =   7.8095197769435E-05
(PID.TID 0000.0001) %MON vort_p_sd                    =   5.6522007037561E-05
(PID.TID 0000.0001) %MON surfExpan_theta_mean         =   1.0388797280080E-07
(PID.TID 0000.0001) %MON surfExpan_salt_mean          =  -2.4948773881966E-08
(PID.TID 0000.0001) // =======================================================
(PID.TID 0000.0001) // End MONITOR dynamic field statistics
(PID.TID 0000.0001) // =======================================================
(PID.TID 0000.0001) // =======================================================
(PID.TID 0000.0001) // Begin MONITOR ptracer field statistics
(PID.TID 0000.0001) // =======================================================
(PID.TID 0000.0001) %MON trcstat_ptracer01_max        =   3.7401036499799E+01
(PID.TID 0000.0001) %MON trcstat_ptracer01_min        =   3.4726820334995E+01
(PID.TID 0000.0001) %MON trcstat_ptracer01_mean       =   3.5157554786387E+01
(PID.TID 0000.0001) %MON trcstat_ptracer01_sd         =   4.1375828814772E-01
(PID.TID 0000.0001) %MON trcstat_ptracer01_del2       =   1.2661144190461E-02
(PID.TID 0000.0001) // =======================================================
(PID.TID 0000.0001) // End MONITOR ptracers field statistics
(PID.TID 0000.0001) // =======================================================
time,SST,SSS,fu,fv,Q,E-P,i0,i1,a,b =   9.0000E+04  0.0000E+00  0.0000E+00  0.0000E+00  0.0000E+00  0.0000E+00  0.0000E+00     2     3  5.8333E-01  4.1667E-01
time,fu0,fu1,fu =   9.0000E+04  0.0000E+00  0.0000E+00  0.0000E+00  5.833333333333334E-01  4.166666666666666E-01
 cg2d: Sum(rhs),rhsMax =   3.19744231092045E-14  5.50717171327218E-01
(PID.TID 0000.0001)                    cg2d_init_res =    6.12970934081918E-02
(PID.TID 0000.0001)                       cg2d_iters =    44
(PID.TID 0000.0001)                         cg2d_res =    8.15112325669271E-14
(PID.TID 0000.0001) // =======================================================
(PID.TID 0000.0001) // Begin MONITOR dynamic field statistics
(PID.TID 0000.0001) // =======================================================
(PID.TID 0000.0001) %MON time_tsnumber                =                    20
(PID.TID 0000.0001) %MON time_secondsf                =   9.3600000000000E+04
(PID.TID 0000.0001) %MON dynstat_eta_max              =   1.5215803183105E-01
(PID.TID 0000.0001) %MON dynstat_eta_min              =  -2.2602936367482E-01
(PID.TID 0000.0001) %MON dynstat_eta_mean             =  -1.5441910026624E-16
(PID.TID 0000.0001) %MON dynstat_eta_sd               =   7.8408636872219E-02
(PID.TID 0000.0001) %MON dynstat_eta_del2             =   4.8140208370587E-03
(PID.TID 0000.0001) %MON dynstat_uvel_max             =   3.2401253728394E-02
(PID.TID 0000.0001) %MON dynstat_uvel_min             =  -2.1322915886912E-01
(PID.TID 0000.0001) %MON dynstat_uvel_mean            =  -2.7420421733329E-05
(PID.TID 0000.0001) %MON dynstat_uvel_sd              =   8.1384663101047E-03
(PID.TID 0000.0001) %MON dynstat_uvel_del2            =   2.0454410770649E-03
(PID.TID 0000.0001) %MON dynstat_vvel_max             =   1.3225664867007E-01
(PID.TID 0000.0001) %MON dynstat_vvel_min             =  -1.1458942537792E-01
(PID.TID 0000.0001) %MON dynstat_vvel_mean            =   3.5276001366873E-05
(PID.TID 0000.0001) %MON dynstat_vvel_sd              =   5.9852345704525E-03
(PID.TID 0000.0001) %MON dynstat_vvel_del2            =   2.0328486970334E-03
(PID.TID 0000.0001) %MON dynstat_wvel_max             =   6.5780896851874E-05
(PID.TID 0000.0001) %MON dynstat_wvel_min             =  -1.6780148226783E-04
(PID.TID 0000.0001) %MON dynstat_wvel_mean            =  -1.3505744630801E-21
(PID.TID 0000.0001) %MON dynstat_wvel_sd              =   2.4045626323964E-05
(PID.TID 0000.0001) %MON dynstat_wvel_del2            =   5.2892155339020E-06
(PID.TID 0000.0001) %MON dynstat_theta_max            =   2.6165578334083E+01
(PID.TID 0000.0001) %MON dynstat_theta_min            =   1.8064670177117E+00
(PID.TID 0000.0001) %MON dynstat_theta_mean           =   5.4787192025593E+00
(PID.TID 0000.0001) %MON dynstat_theta_sd             =   4.5934272320254E+00
(PID.TID 0000.0001) %MON dynstat_theta_del2           =   5.1333181897967E-02
(PID.TID 0000.0001) %MON dynstat_salt_max             =   3.7406764663002E+01
(PID.TID 0000.0001) %MON dynstat_salt_min             =   3.4726834127141E+01
(PID.TID 0000.0001) %MON dynstat_salt_mean            =   3.5157578829605E+01
(PID.TID 0000.0001) %MON dynstat_salt_sd              =   4.1383063227521E-01
(PID.TID 0000.0001) %MON dynstat_salt_del2            =   1.2659570242998E-02
(PID.TID 0000.0001) %MON extforcing_qnet_max          =   5.7280787150065E+01
(PID.TID 0000.0001) %MON extforcing_qnet_min          =  -1.7148053487142E+02
(PID.TID 0000.0001) %MON extforcing_qnet_mean         =  -6.7917534930019E+01
(PID.TID 0000.0001) %MON extforcing_qnet_sd           =   4.9562900759258E+01
(PID.TID 0000.0001) %MON extforcing_qnet_del2         =   7.7331181872263E+00
(PID.TID 0000.0001) %MON extforcing_qsw_max           =  -1.3106833394368E+02
(PID.TID 0000.0001) %MON extforcing_qsw_min           =  -3.1762956492106E+02
(PID.TID 0000.0001) %MON extforcing_qsw_mean          =  -2.5271815664967E+02
(PID.TID 0000.0001) %MON extforcing_qsw_sd            =   4.1764415005147E+01
(PID.TID 0000.0001) %MON extforcing_qsw_del2          =   5.2155629425800E+00
(PID.TID 0000.0001) %MON extforcing_empmr_max         =   7.0559226872765E-05
(PID.TID 0000.0001) %MON extforcing_empmr_min         =   1.4493037263907E-05
(PID.TID 0000.0001) %MON extforcing_empmr_mean        =   4.4363672689087E-05
(PID.TID 0000.0001) %MON extforcing_empmr_sd          =   1.1610819012107E-05
(PID.TID 0000.0001) %MON extforcing_empmr_del2        =   2.3117338043803E-06
(PID.TID 0000.0001) %MON advcfl_uvel_max              =   3.5740326927986E-03
(PID.TID 0000.0001) %MON advcfl_vvel_max              =   2.1412788079139E-03
(PID.TID 0000.0001) %MON advcfl_wvel_max              =   5.1187889801945E-03
(PID.TID 0000.0001) %MON advcfl_W_hf_max              =   6.3984862252431E-03
(PID.TID 0000.0001) %MON pe_b_mean                    =   7.4107116500890E-06
(PID.TID 0000.0001) %MON ke_max                       =   2.5492034027878E-02
(PID.TID 0000.0001) %MON ke_mean                      =   4.5559812208001E-05
(PID.TID 0000.0001) %MON ke_vol                       =   3.6027486600263E+16
(PID.TID 0000.0001) %MON vort_r_min                   =  -3.8767889458942E-07
(PID.TID 0000.0001) %MON vort_r_max                   =   7.4258046616905E-07
(PID.TID 0000.0001) %MON vort_a_mean                  =   6.2114138811197E-05
(PID.TID 0000.0001) %MON vort_a_sd                    =   1.9250232486910E-05
(PID.TID 0000.0001) %MON vort_p_mean                  =   7.8095197769435E-05
(PID.TID 0000.0001) %MON vort_p_sd                    =   5.6522772800357E-05
(PID.TID 0000.0001) %MON surfExpan_theta_mean         =  -3.6180965317147E-07
(PID.TID 0000.0001) %MON surfExpan_salt_mean          =   1.2265518903090E-08
(PID.TID 0000.0001) // =======================================================
(PID.TID 0000.0001) // End MONITOR dynamic field statistics
(PID.TID 0000.0001) // =======================================================
(PID.TID 0000.0001) // =======================================================
(PID.TID 0000.0001) // Begin MONITOR ptracer field statistics
(PID.TID 0000.0001) // =======================================================
(PID.TID 0000.0001) %MON trcstat_ptracer01_max        =   3.7401036499799E+01
(PID.TID 0000.0001) %MON trcstat_ptracer01_min        =   3.4726820334995E+01
(PID.TID 0000.0001) %MON trcstat_ptracer01_mean       =   3.5157554786387E+01
(PID.TID 0000.0001) %MON trcstat_ptracer01_sd         =   4.1375828814772E-01
(PID.TID 0000.0001) %MON trcstat_ptracer01_del2       =   1.2661144190461E-02
(PID.TID 0000.0001) // =======================================================
(PID.TID 0000.0001) // End MONITOR ptracers field statistics
(PID.TID 0000.0001) // =======================================================
time,SST,SSS,fu,fv,Q,E-P,i0,i1,a,b =   9.3600E+04  0.0000E+00  0.0000E+00  0.0000E+00  0.0000E+00  0.0000E+00  0.0000E+00     2     3  6.6667E-01  3.3333E-01
time,fu0,fu1,fu =   9.3600E+04  0.0000E+00  0.0000E+00  0.0000E+00  6.666666666666666E-01  3.333333333333334E-01
 cg2d: Sum(rhs),rhsMax =   3.10862446895044E-14  5.47487778484670E-01
(PID.TID 0000.0001)                    cg2d_init_res =    6.14041816247370E-02
(PID.TID 0000.0001)                       cg2d_iters =    44
(PID.TID 0000.0001)                         cg2d_res =    7.19808300758253E-14
(PID.TID 0000.0001) // =======================================================
(PID.TID 0000.0001) // Begin MONITOR dynamic field statistics
(PID.TID 0000.0001) // =======================================================
(PID.TID 0000.0001) %MON time_tsnumber                =                    21
(PID.TID 0000.0001) %MON time_secondsf                =   9.7200000000000E+04
(PID.TID 0000.0001) %MON dynstat_eta_max              =   1.5098366205606E-01
(PID.TID 0000.0001) %MON dynstat_eta_min              =  -2.2486689873413E-01
(PID.TID 0000.0001) %MON dynstat_eta_mean             =  -1.4614664846627E-16
(PID.TID 0000.0001) %MON dynstat_eta_sd               =   7.7861352576507E-02
(PID.TID 0000.0001) %MON dynstat_eta_del2             =   4.8526691281570E-03
(PID.TID 0000.0001) %MON dynstat_uvel_max             =   3.1314172463186E-02
(PID.TID 0000.0001) %MON dynstat_uvel_min             =  -2.0743586378450E-01
(PID.TID 0000.0001) %MON dynstat_uvel_mean            =  -2.7137500539590E-05
(PID.TID 0000.0001) %MON dynstat_uvel_sd              =   7.7988703871548E-03
(PID.TID 0000.0001) %MON dynstat_uvel_del2            =   1.9905850227363E-03
(PID.TID 0000.0001) %MON dynstat_vvel_max             =   1.3893670539563E-01
(PID.TID 0000.0001) %MON dynstat_vvel_min             =  -1.0837494784992E-01
(PID.TID 0000.0001) %MON dynstat_vvel_mean            =   6.9329603731637E-05
(PID.TID 0000.0001) %MON dynstat_vvel_sd              =   5.9878667980571E-03
(PID.TID 0000.0001) %MON dynstat_vvel_del2            =   2.0140341157441E-03
(PID.TID 0000.0001) %MON dynstat_wvel_max             =   7.5690197782575E-05
(PID.TID 0000.0001) %MON dynstat_wvel_min             =  -1.6293287535153E-04
(PID.TID 0000.0001) %MON dynstat_wvel_mean            =   3.3764361577003E-22
(PID.TID 0000.0001) %MON dynstat_wvel_sd              =   2.3583893983991E-05
(PID.TID 0000.0001) %MON dynstat_wvel_del2            =   5.4060264435121E-06
(PID.TID 0000.0001) %MON dynstat_theta_max            =   2.6171347261553E+01
(PID.TID 0000.0001) %MON dynstat_theta_min            =   1.8064699858508E+00
(PID.TID 0000.0001) %MON dynstat_theta_mean           =   5.4787344861071E+00
(PID.TID 0000.0001) %MON dynstat_theta_sd             =   4.5934781873685E+00
(PID.TID 0000.0001) %MON dynstat_theta_del2           =   5.1382987767862E-02
(PID.TID 0000.0001) %MON dynstat_salt_max             =   3.7407154166091E+01
(PID.TID 0000.0001) %MON dynstat_salt_min             =   3.4726841503450E+01
(PID.TID 0000.0001) %MON dynstat_salt_mean            =   3.5157580237364E+01
(PID.TID 0000.0001) %MON dynstat_salt_sd              =   4.1383448054458E-01
(PID.TID 0000.0001) %MON dynstat_salt_del2            =   1.2660574157995E-02
(PID.TID 0000.0001) %MON extforcing_qnet_max          =   5.8747227986654E+01
(PID.TID 0000.0001) %MON extforcing_qnet_min          =  -1.7275064341227E+02
(PID.TID 0000.0001) %MON extforcing_qnet_mean         =  -6.6961859630039E+01
(PID.TID 0000.0001) %MON extforcing_qnet_sd           =   4.9410747031214E+01
(PID.TID 0000.0001) %MON extforcing_qnet_del2         =   7.7259231467161E+00
(PID.TID 0000.0001) %MON extforcing_qsw_max           =  -1.3057248942057E+02
(PID.TID 0000.0001) %MON extforcing_qsw_min           =  -3.1866255696615E+02
(PID.TID 0000.0001) %MON extforcing_qsw_mean          =  -2.5316618004679E+02
(PID.TID 0000.0001) %MON extforcing_qsw_sd            =   4.1780248618451E+01
(PID.TID 0000.0001) %MON extforcing_qsw_del2          =   5.1897492808074E+00
(PID.TID 0000.0001) %MON extforcing_empmr_max         =   7.1123738443172E-05
(PID.TID 0000.0001) %MON extforcing_empmr_min         =   1.4577770742719E-05
(PID.TID 0000.0001) %MON extforcing_empmr_mean        =   4.4784945200327E-05
(PID.TID 0000.0001) %MON extforcing_empmr_sd          =   1.1640983370527E-05
(PID.TID 0000.0001) %MON extforcing_empmr_del2        =   2.3200856165226E-06
(PID.TID 0000.0001) %MON advcfl_uvel_max              =   3.4769285906145E-03
(PID.TID 0000.0001) %MON advcfl_vvel_max              =   2.2494311317927E-03
(PID.TID 0000.0001) %MON advcfl_wvel_max              =   5.1095853466386E-03
(PID.TID 0000.0001) %MON advcfl_W_hf_max              =   6.3869816832983E-03
(PID.TID 0000.0001) %MON pe_b_mean                    =   7.3076206680163E-06
(PID.TID 0000.0001) %MON ke_max                       =   2.4758512755612E-02
(PID.TID 0000.0001) %MON ke_mean                      =   4.3138223634528E-05
(PID.TID 0000.0001) %MON ke_vol                       =   3.6027486600263E+16
(PID.TID 0000.0001) %MON vort_r_min                   =  -3.8863638161017E-07
(PID.TID 0000.0001) %MON vort_r_max                   =   7.2368833851481E-07
(PID.TID 0000.0001) %MON vort_a_mean                  =   6.2114138811197E-05
(PID.TID 0000.0001) %MON vort_a_sd                    =   1.9250230370249E-05
(PID.TID 0000.0001) %MON vort_p_mean                  =   7.8095197769435E-05
(PID.TID 0000.0001) %MON vort_p_sd                    =   5.6523409527009E-05
(PID.TID 0000.0001) %MON surfExpan_theta_mean         =  -5.9636805508657E-07
(PID.TID 0000.0001) %MON surfExpan_salt_mean          =   4.0673396596272E-08
(PID.TID 0000.0001) // =======================================================
(PID.TID 0000.0001) // End MONITOR dynamic field statistics
(PID.TID 0000.0001) // =======================================================
(PID.TID 0000.0001) // =======================================================
(PID.TID 0000.0001) // Begin MONITOR ptracer field statistics
(PID.TID 0000.0001) // =======================================================
(PID.TID 0000.0001) %MON trcstat_ptracer01_max        =   3.7401136561713E+01
(PID.TID 0000.0001) %MON trcstat_ptracer01_min        =   3.4726842848499E+01
(PID.TID 0000.0001) %MON trcstat_ptracer01_mean       =   3.5157554789374E+01
(PID.TID 0000.0001) %MON trcstat_ptracer01_sd         =   4.1375650505457E-01
(PID.TID 0000.0001) %MON trcstat_ptracer01_del2       =   1.2664908795991E-02
(PID.TID 0000.0001) // =======================================================
(PID.TID 0000.0001) // End MONITOR ptracers field statistics
(PID.TID 0000.0001) // =======================================================
 Computing Diagnostic #    211  TRAC01       Counter:       1   Parms: SM P    MR      
(PID.TID 0000.0001) %CHECKPOINT        21 ckptA
(PID.TID 0000.0001)   Seconds in section "ALL                    [THE_MODEL_MAIN]":
(PID.TID 0000.0001)           User time:  8.12376475
(PID.TID 0000.0001)         System time:  0.420936009
(PID.TID 0000.0001)     Wall clock time:  8.54730988
(PID.TID 0000.0001)          No. starts: 1
(PID.TID 0000.0001)           No. stops: 1
(PID.TID 0000.0001)   Seconds in section "INITIALISE_FIXED       [THE_MODEL_MAIN]":
(PID.TID 0000.0001)           User time:  0.390940005
(PID.TID 0000.0001)         System time:  0.0539920013
(PID.TID 0000.0001)     Wall clock time:  0.444411039
(PID.TID 0000.0001)          No. starts: 1
(PID.TID 0000.0001)           No. stops: 1
(PID.TID 0000.0001)   Seconds in section "THE_MAIN_LOOP          [THE_MODEL_MAIN]":
(PID.TID 0000.0001)           User time:  7.73282474
(PID.TID 0000.0001)         System time:  0.366944008
(PID.TID 0000.0001)     Wall clock time:  8.10273099
(PID.TID 0000.0001)          No. starts: 1
(PID.TID 0000.0001)           No. stops: 1
(PID.TID 0000.0001)   Seconds in section "INITIALISE_VARIA    [THE_MAIN_LOOP]":
(PID.TID 0000.0001)           User time:  0.104984999
(PID.TID 0000.0001)         System time:  0.0679899976
(PID.TID 0000.0001)     Wall clock time:  0.173254013
(PID.TID 0000.0001)          No. starts: 1
(PID.TID 0000.0001)           No. stops: 1
(PID.TID 0000.0001)   Seconds in section "MAIN LOOP           [THE_MAIN_LOOP]":
(PID.TID 0000.0001)           User time:  7.62783974
(PID.TID 0000.0001)         System time:  0.29895401
(PID.TID 0000.0001)     Wall clock time:  7.92935514
(PID.TID 0000.0001)          No. starts: 1
(PID.TID 0000.0001)           No. stops: 1
(PID.TID 0000.0001)   Seconds in section "FORWARD_STEP        [THE_MAIN_LOOP]":
(PID.TID 0000.0001)           User time:  7.62783974
(PID.TID 0000.0001)         System time:  0.29895401
(PID.TID 0000.0001)     Wall clock time:  7.9284637
(PID.TID 0000.0001)          No. starts: 21
(PID.TID 0000.0001)           No. stops: 21
(PID.TID 0000.0001)   Seconds in section "DO_STATEVARS_DIAGS  [FORWARD_STEP]":
(PID.TID 0000.0001)           User time:  0.00599956512
(PID.TID 0000.0001)         System time:  0.
(PID.TID 0000.0001)     Wall clock time:  0.00419735909
(PID.TID 0000.0001)          No. starts: 42
(PID.TID 0000.0001)           No. stops: 42
(PID.TID 0000.0001)   Seconds in section "LOAD_FIELDS_DRIVER  [FORWARD_STEP]":
(PID.TID 0000.0001)           User time:  0.0149972439
(PID.TID 0000.0001)         System time:  0.0029990077
(PID.TID 0000.0001)     Wall clock time:  0.0200045109
(PID.TID 0000.0001)          No. starts: 21
(PID.TID 0000.0001)           No. stops: 21
(PID.TID 0000.0001)   Seconds in section "EXTERNAL_FLDS_LOAD [LOAD_FLDS_DRIVER]":
(PID.TID 0000.0001)           User time:  0.0149972439
(PID.TID 0000.0001)         System time:  0.0029990077
(PID.TID 0000.0001)     Wall clock time:  0.0183260441
(PID.TID 0000.0001)          No. starts: 21
(PID.TID 0000.0001)           No. stops: 21
(PID.TID 0000.0001)   Seconds in section "DO_ATMOSPHERIC_PHYS [FORWARD_STEP]":
(PID.TID 0000.0001)           User time:  0.
(PID.TID 0000.0001)         System time:  0.
(PID.TID 0000.0001)     Wall clock time:  0.000824451447
(PID.TID 0000.0001)          No. starts: 21
(PID.TID 0000.0001)           No. stops: 21
(PID.TID 0000.0001)   Seconds in section "DO_OCEANIC_PHYS     [FORWARD_STEP]":
(PID.TID 0000.0001)           User time:  1.89970881
(PID.TID 0000.0001)         System time:  0.0029990077
(PID.TID 0000.0001)     Wall clock time:  1.89966297
(PID.TID 0000.0001)          No. starts: 21
(PID.TID 0000.0001)           No. stops: 21
(PID.TID 0000.0001)   Seconds in section "KPP_CALC [DO_OCEANIC_PHYS]":
(PID.TID 0000.0001)           User time:  1.48377687
(PID.TID 0000.0001)         System time:  0.00199900568
(PID.TID 0000.0001)     Wall clock time:  1.48884296
(PID.TID 0000.0001)          No. starts: 84
(PID.TID 0000.0001)           No. stops: 84
(PID.TID 0000.0001)   Seconds in section "LONGSTEP_AVERAGE    [FORWARD_STEP]":
(PID.TID 0000.0001)           User time:  0.317953825
(PID.TID 0000.0001)         System time:  0.00399897993
(PID.TID 0000.0001)     Wall clock time:  0.322675943
(PID.TID 0000.0001)          No. starts: 21
(PID.TID 0000.0001)           No. stops: 21
(PID.TID 0000.0001)   Seconds in section "THERMODYNAMICS      [FORWARD_STEP]":
(PID.TID 0000.0001)           User time:  1.49877405
(PID.TID 0000.0001)         System time:  0.00399900973
(PID.TID 0000.0001)     Wall clock time:  1.50559402
(PID.TID 0000.0001)          No. starts: 21
(PID.TID 0000.0001)           No. stops: 21
(PID.TID 0000.0001)   Seconds in section "DYNAMICS            [FORWARD_STEP]":
(PID.TID 0000.0001)           User time:  2.4006328
(PID.TID 0000.0001)         System time:  0.00200000405
(PID.TID 0000.0001)     Wall clock time:  2.40114665
(PID.TID 0000.0001)          No. starts: 21
(PID.TID 0000.0001)           No. stops: 21
(PID.TID 0000.0001)   Seconds in section "SOLVE_FOR_PRESSURE  [FORWARD_STEP]":
(PID.TID 0000.0001)           User time:  0.229967594
(PID.TID 0000.0001)         System time:  0.00100000203
(PID.TID 0000.0001)     Wall clock time:  0.232387066
(PID.TID 0000.0001)          No. starts: 21
(PID.TID 0000.0001)           No. stops: 21
(PID.TID 0000.0001)   Seconds in section "MOM_CORRECTION_STEP [FORWARD_STEP]":
(PID.TID 0000.0001)           User time:  0.0849885941
(PID.TID 0000.0001)         System time:  0.
(PID.TID 0000.0001)     Wall clock time:  0.0859599113
(PID.TID 0000.0001)          No. starts: 21
(PID.TID 0000.0001)           No. stops: 21
(PID.TID 0000.0001)   Seconds in section "TRC_CORRECTION_STEP [FORWARD_STEP]":
(PID.TID 0000.0001)           User time:  0.0389932394
(PID.TID 0000.0001)         System time:  0.
(PID.TID 0000.0001)     Wall clock time:  0.0358459949
(PID.TID 0000.0001)          No. starts: 21
(PID.TID 0000.0001)           No. stops: 21
(PID.TID 0000.0001)   Seconds in section "LONGSTEP_THERMODYNAMICS      [FORWARD_STEP]":
(PID.TID 0000.0001)           User time:  0.285954833
(PID.TID 0000.0001)         System time:  0.
(PID.TID 0000.0001)     Wall clock time:  0.285873175
(PID.TID 0000.0001)          No. starts: 21
(PID.TID 0000.0001)           No. stops: 21
(PID.TID 0000.0001)   Seconds in section "LS_CORRECTION_STEP  [FORWARD_STEP]":
(PID.TID 0000.0001)           User time:  0.00799870491
(PID.TID 0000.0001)         System time:  0.
(PID.TID 0000.0001)     Wall clock time:  0.00666379929
(PID.TID 0000.0001)          No. starts: 21
(PID.TID 0000.0001)           No. stops: 21
(PID.TID 0000.0001)   Seconds in section "BLOCKING_EXCHANGES  [FORWARD_STEP]":
(PID.TID 0000.0001)           User time:  0.20696938
(PID.TID 0000.0001)         System time:  0.
(PID.TID 0000.0001)     Wall clock time:  0.207630634
(PID.TID 0000.0001)          No. starts: 21
(PID.TID 0000.0001)           No. stops: 21
(PID.TID 0000.0001)   Seconds in section "DO_STATEVARS_TAVE   [FORWARD_STEP]":
(PID.TID 0000.0001)           User time:  0.
(PID.TID 0000.0001)         System time:  0.
(PID.TID 0000.0001)     Wall clock time:  0.000865459442
(PID.TID 0000.0001)          No. starts: 21
(PID.TID 0000.0001)           No. stops: 21
(PID.TID 0000.0001)   Seconds in section "MONITOR             [FORWARD_STEP]":
(PID.TID 0000.0001)           User time:  0.336945713
(PID.TID 0000.0001)         System time:  0.00299997628
(PID.TID 0000.0001)     Wall clock time:  0.338952303
(PID.TID 0000.0001)          No. starts: 21
(PID.TID 0000.0001)           No. stops: 21
(PID.TID 0000.0001)   Seconds in section "DO_THE_MODEL_IO     [FORWARD_STEP]":
(PID.TID 0000.0001)           User time:  0.213968277
(PID.TID 0000.0001)         System time:  0.176974028
(PID.TID 0000.0001)     Wall clock time:  0.390927076
(PID.TID 0000.0001)          No. starts: 21
(PID.TID 0000.0001)           No. stops: 21
(PID.TID 0000.0001)   Seconds in section "DO_WRITE_PICKUP     [FORWARD_STEP]":
(PID.TID 0000.0001)           User time:  0.0709891319
(PID.TID 0000.0001)         System time:  0.101983994
(PID.TID 0000.0001)     Wall clock time:  0.172663927
(PID.TID 0000.0001)          No. starts: 21
(PID.TID 0000.0001)           No. stops: 21
(PID.TID 0000.0001) // ======================================================
(PID.TID 0000.0001) // Tile <-> Tile communication statistics
(PID.TID 0000.0001) // ======================================================
(PID.TID 0000.0001) // o Tile number: 000001
(PID.TID 0000.0001) //         No. X exchanges =              0
(PID.TID 0000.0001) //            Max. X spins =              0
(PID.TID 0000.0001) //            Min. X spins =     1000000000
(PID.TID 0000.0001) //          Total. X spins =              0
(PID.TID 0000.0001) //            Avg. X spins =       0.00E+00
(PID.TID 0000.0001) //         No. Y exchanges =              0
(PID.TID 0000.0001) //            Max. Y spins =              0
(PID.TID 0000.0001) //            Min. Y spins =     1000000000
(PID.TID 0000.0001) //          Total. Y spins =              0
(PID.TID 0000.0001) //            Avg. Y spins =       0.00E+00
(PID.TID 0000.0001) // o Tile number: 000002
(PID.TID 0000.0001) //         No. X exchanges =              0
(PID.TID 0000.0001) //            Max. X spins =              0
(PID.TID 0000.0001) //            Min. X spins =     1000000000
(PID.TID 0000.0001) //          Total. X spins =              0
(PID.TID 0000.0001) //            Avg. X spins =       0.00E+00
(PID.TID 0000.0001) //         No. Y exchanges =              0
(PID.TID 0000.0001) //            Max. Y spins =              0
(PID.TID 0000.0001) //            Min. Y spins =     1000000000
(PID.TID 0000.0001) //          Total. Y spins =              0
(PID.TID 0000.0001) //            Avg. Y spins =       0.00E+00
(PID.TID 0000.0001) // o Tile number: 000003
(PID.TID 0000.0001) //         No. X exchanges =              0
(PID.TID 0000.0001) //            Max. X spins =              0
(PID.TID 0000.0001) //            Min. X spins =     1000000000
(PID.TID 0000.0001) //          Total. X spins =              0
(PID.TID 0000.0001) //            Avg. X spins =       0.00E+00
(PID.TID 0000.0001) //         No. Y exchanges =              0
(PID.TID 0000.0001) //            Max. Y spins =              0
(PID.TID 0000.0001) //            Min. Y spins =     1000000000
(PID.TID 0000.0001) //          Total. Y spins =              0
(PID.TID 0000.0001) //            Avg. Y spins =       0.00E+00
(PID.TID 0000.0001) // o Tile number: 000004
(PID.TID 0000.0001) //         No. X exchanges =              0
(PID.TID 0000.0001) //            Max. X spins =              0
(PID.TID 0000.0001) //            Min. X spins =     1000000000
(PID.TID 0000.0001) //          Total. X spins =              0
(PID.TID 0000.0001) //            Avg. X spins =       0.00E+00
(PID.TID 0000.0001) //         No. Y exchanges =              0
(PID.TID 0000.0001) //            Max. Y spins =              0
(PID.TID 0000.0001) //            Min. Y spins =     1000000000
(PID.TID 0000.0001) //          Total. Y spins =              0
(PID.TID 0000.0001) //            Avg. Y spins =       0.00E+00
(PID.TID 0000.0001) // o Thread number: 000001
(PID.TID 0000.0001) //            No. barriers =          11200
(PID.TID 0000.0001) //      Max. barrier spins =              1
(PID.TID 0000.0001) //      Min. barrier spins =              1
(PID.TID 0000.0001) //     Total barrier spins =          11200
(PID.TID 0000.0001) //      Avg. barrier spins =       1.00E+00
