(PID.TID 0000.0001) 
(PID.TID 0000.0001) // ======================================================
(PID.TID 0000.0001) //                      MITgcm UV
(PID.TID 0000.0001) //                      =========
(PID.TID 0000.0001) // ======================================================
(PID.TID 0000.0001) // execution environment starting up...
(PID.TID 0000.0001) 
(PID.TID 0000.0001) // MITgcmUV version:  checkpoint63f
(PID.TID 0000.0001) // Build user:        jmc
(PID.TID 0000.0001) // Build host:        baudelaire
(PID.TID 0000.0001) // Build date:        Thu Dec  1 12:14:13 EST 2011
(PID.TID 0000.0001) 
(PID.TID 0000.0001) // =======================================================
(PID.TID 0000.0001) // Execution Environment parameter file "eedata"
(PID.TID 0000.0001) // =======================================================
(PID.TID 0000.0001) ># Example "eedata" file
(PID.TID 0000.0001) ># Lines beginning "#" are comments
(PID.TID 0000.0001) ># nTx - No. threads per process in X
(PID.TID 0000.0001) ># nTy - No. threads per process in Y
(PID.TID 0000.0001) > &EEPARMS
(PID.TID 0000.0001) > nTx=1,
(PID.TID 0000.0001) > nTy=1,
(PID.TID 0000.0001) > /
(PID.TID 0000.0001) ># Note: Some systems use & as the
(PID.TID 0000.0001) ># namelist terminator. Other systems
(PID.TID 0000.0001) ># use a / character (as shown here).
(PID.TID 0000.0001) 
(PID.TID 0000.0001) // =======================================================
(PID.TID 0000.0001) // Computational Grid Specification ( see files "SIZE.h" )
(PID.TID 0000.0001) //                                  ( and "eedata"       )
(PID.TID 0000.0001) // =======================================================
(PID.TID 0000.0001)      nPx =    1 ; /* No. processes in X */
(PID.TID 0000.0001)      nPy =    1 ; /* No. processes in Y */
(PID.TID 0000.0001)      nSx =    2 ; /* No. tiles in X per process */
(PID.TID 0000.0001)      nSy =    2 ; /* No. tiles in Y per process */
(PID.TID 0000.0001)      sNx =   45 ; /* Tile size in X */
(PID.TID 0000.0001)      sNy =   20 ; /* Tile size in Y */
(PID.TID 0000.0001)      OLx =    3 ; /* Tile overlap distance in X */
(PID.TID 0000.0001)      OLy =    3 ; /* Tile overlap distance in Y */
(PID.TID 0000.0001)      nTx =    1 ; /* No. threads in X per process */
(PID.TID 0000.0001)      nTy =    1 ; /* No. threads in Y per process */
(PID.TID 0000.0001)       Nr =   20 ; /* No. levels in the vertical   */
(PID.TID 0000.0001)       Nx =   90 ; /* Total domain size in X ( = nPx*nSx*sNx ) */
(PID.TID 0000.0001)       Ny =   40 ; /* Total domain size in Y ( = nPy*nSy*sNy ) */
(PID.TID 0000.0001)   nTiles =    4 ; /* Total no. tiles per process ( = nSx*nSy ) */
(PID.TID 0000.0001)   nProcs =    1 ; /* Total no. processes ( = nPx*nPy ) */
(PID.TID 0000.0001) nThreads =    1 ; /* Total no. threads per process ( = nTx*nTy ) */
(PID.TID 0000.0001) usingMPI =    F ; /* Flag used to control whether MPI is in use */
(PID.TID 0000.0001)                   /*  note: To execute a program with MPI calls */
(PID.TID 0000.0001)                   /*  it must be launched appropriately e.g     */
(PID.TID 0000.0001)                   /*  "mpirun -np 64 ......"                    */
(PID.TID 0000.0001) useCoupler=    F ;/* Flag used to control communications with   */
(PID.TID 0000.0001)                   /*  other model components, through a coupler */
(PID.TID 0000.0001) debugMode =    F ; /* print debug msg. (sequence of S/R calls)  */
(PID.TID 0000.0001) printMapIncludesZeros=    F ; /* print zeros in Std.Output maps */
(PID.TID 0000.0001) maxLengthPrt1D=   65 /* maxLength of 1D array printed to StdOut */
(PID.TID 0000.0001) 
(PID.TID 0000.0001) // ======================================================
(PID.TID 0000.0001) // Mapping of tiles to threads
(PID.TID 0000.0001) // ======================================================
(PID.TID 0000.0001) // -o- Thread   1, tiles (   1:   2,   1:   2)
(PID.TID 0000.0001) 
(PID.TID 0000.0001) // ======================================================
(PID.TID 0000.0001) // Tile <-> Tile connectvity table
(PID.TID 0000.0001) // ======================================================
(PID.TID 0000.0001) // Tile number: 000001 (process no. = 000001)
(PID.TID 0000.0001) //        WEST: Tile = 000002, Process = 000001, Comm = put
(PID.TID 0000.0001) //                bi = 000002, bj = 000001
(PID.TID 0000.0001) //        EAST: Tile = 000002, Process = 000001, Comm = put
(PID.TID 0000.0001) //                bi = 000002, bj = 000001
(PID.TID 0000.0001) //       SOUTH: Tile = 000003, Process = 000001, Comm = put
(PID.TID 0000.0001) //                bi = 000001, bj = 000002
(PID.TID 0000.0001) //       NORTH: Tile = 000003, Process = 000001, Comm = put
(PID.TID 0000.0001) //                bi = 000001, bj = 000002
(PID.TID 0000.0001) // Tile number: 000002 (process no. = 000001)
(PID.TID 0000.0001) //        WEST: Tile = 000001, Process = 000001, Comm = put
(PID.TID 0000.0001) //                bi = 000001, bj = 000001
(PID.TID 0000.0001) //        EAST: Tile = 000001, Process = 000001, Comm = put
(PID.TID 0000.0001) //                bi = 000001, bj = 000001
(PID.TID 0000.0001) //       SOUTH: Tile = 000004, Process = 000001, Comm = put
(PID.TID 0000.0001) //                bi = 000002, bj = 000002
(PID.TID 0000.0001) //       NORTH: Tile = 000004, Process = 000001, Comm = put
(PID.TID 0000.0001) //                bi = 000002, bj = 000002
(PID.TID 0000.0001) // Tile number: 000003 (process no. = 000001)
(PID.TID 0000.0001) //        WEST: Tile = 000004, Process = 000001, Comm = put
(PID.TID 0000.0001) //                bi = 000002, bj = 000002
(PID.TID 0000.0001) //        EAST: Tile = 000004, Process = 000001, Comm = put
(PID.TID 0000.0001) //                bi = 000002, bj = 000002
(PID.TID 0000.0001) //       SOUTH: Tile = 000001, Process = 000001, Comm = put
(PID.TID 0000.0001) //                bi = 000001, bj = 000001
(PID.TID 0000.0001) //       NORTH: Tile = 000001, Process = 000001, Comm = put
(PID.TID 0000.0001) //                bi = 000001, bj = 000001
(PID.TID 0000.0001) // Tile number: 000004 (process no. = 000001)
(PID.TID 0000.0001) //        WEST: Tile = 000003, Process = 000001, Comm = put
(PID.TID 0000.0001) //                bi = 000001, bj = 000002
(PID.TID 0000.0001) //        EAST: Tile = 000003, Process = 000001, Comm = put
(PID.TID 0000.0001) //                bi = 000001, bj = 000002
(PID.TID 0000.0001) //       SOUTH: Tile = 000002, Process = 000001, Comm = put
(PID.TID 0000.0001) //                bi = 000002, bj = 000001
(PID.TID 0000.0001) //       NORTH: Tile = 000002, Process = 000001, Comm = put
(PID.TID 0000.0001) //                bi = 000002, bj = 000001
(PID.TID 0000.0001) 
(PID.TID 0000.0001)  INI_PARMS: opening model parameter file "data"
(PID.TID 0000.0001)  OPEN_COPY_DATA_FILE: opening file data
(PID.TID 0000.0001) // =======================================================
(PID.TID 0000.0001) // Parameter file "data"
(PID.TID 0000.0001) // =======================================================
(PID.TID 0000.0001) ># ====================
(PID.TID 0000.0001) ># | Model parameters |
(PID.TID 0000.0001) ># ====================
(PID.TID 0000.0001) >#
(PID.TID 0000.0001) ># Continuous equation parameters
(PID.TID 0000.0001) > &PARM01
(PID.TID 0000.0001) > tRef= 16.0 , 15.2 , 14.5 , 13.9 , 13.3 ,
(PID.TID 0000.0001) >       12.4 , 11.3 ,  9.9 ,  8.4 ,  6.7 ,
(PID.TID 0000.0001) >        5.2 ,  3.8 ,  2.9 ,  2.3 ,  1.8 ,
(PID.TID 0000.0001) >        1.5 ,  1.1 ,  0.8 ,  0.66,  0.63,
(PID.TID 0000.0001) > sRef= 34.65, 34.75, 34.82, 34.87, 34.90,
(PID.TID 0000.0001) >       34.90, 34.86, 34.78, 34.69, 34.60,
(PID.TID 0000.0001) >       34.58, 34.62, 34.68, 34.72, 34.73,
(PID.TID 0000.0001) >       34.74, 34.73, 34.73, 34.72, 34.72,
(PID.TID 0000.0001) > viscAz=1.E-3,
(PID.TID 0000.0001) > viscAh=5.E5,
(PID.TID 0000.0001) > no_slip_sides=.FALSE.,
(PID.TID 0000.0001) > no_slip_bottom=.TRUE.,
(PID.TID 0000.0001) > diffKhT=1.E3,
(PID.TID 0000.0001) > diffKzT=3.E-5,
(PID.TID 0000.0001) > diffKhS=1.E3,
(PID.TID 0000.0001) > diffKzS=3.E-5,
(PID.TID 0000.0001) > rotationPeriod=86400.,
(PID.TID 0000.0001) > beta=1.E-11,
(PID.TID 0000.0001) > f0=1.e-4,
(PID.TID 0000.0001) > tAlpha=2.E-4,
(PID.TID 0000.0001) > sBeta =7.4E-4,
(PID.TID 0000.0001) > gravity=9.81,
(PID.TID 0000.0001) > rigidLid=.FALSE.,
(PID.TID 0000.0001) > implicitFreeSurface=.TRUE.,
(PID.TID 0000.0001) > eosType='LINEAR',
(PID.TID 0000.0001) > implicitDiffusion=.true.,
(PID.TID 0000.0001) > readBinaryPrec=32,
(PID.TID 0000.0001) > exactConserv=.TRUE.,
(PID.TID 0000.0001) > useCDscheme=.TRUE.,
(PID.TID 0000.0001) >#nonlinear free surface
(PID.TID 0000.0001) > hFacInf=0.2,
(PID.TID 0000.0001) > hFacSup=2.0,
(PID.TID 0000.0001) > nonlinFreeSurf=2,
(PID.TID 0000.0001) > select_rStar=2,
(PID.TID 0000.0001) >#
(PID.TID 0000.0001) ># readPickupWithTracer  = .FALSE.,
(PID.TID 0000.0001) ># writePickupWithTracer = .FALSE.,
(PID.TID 0000.0001) > /
(PID.TID 0000.0001) >
(PID.TID 0000.0001) ># Elliptic solver parameters
(PID.TID 0000.0001) > &PARM02
(PID.TID 0000.0001) > cg2dMaxIters=1000,
(PID.TID 0000.0001) > cg2dTargetResidual=1.E-17,
(PID.TID 0000.0001) > /
(PID.TID 0000.0001) >
(PID.TID 0000.0001) ># Time stepping parameters
(PID.TID 0000.0001) > &PARM03
(PID.TID 0000.0001) ># startTime         = 49766400000.,
(PID.TID 0000.0001) > startTime         = 0.,
(PID.TID 0000.0001) ># endTime           = 49767264000.,
(PID.TID 0000.0001) > endTime           = 345600.,
(PID.TID 0000.0001) > deltaTmom         = 2400.0,
(PID.TID 0000.0001) > tauCD=321428.,
(PID.TID 0000.0001) > deltaTtracer      = 86400.0,
(PID.TID 0000.0001) > deltaTClock       = 86400.0,
(PID.TID 0000.0001) > cAdjFreq=-1.,
(PID.TID 0000.0001) > abEps=0.1,
(PID.TID 0000.0001) > pChkptFreq        = 86400000.,
(PID.TID 0000.0001) > chkptFreq         = 86400000.,
(PID.TID 0000.0001) > dumpFreq          = 86400.,
(PID.TID 0000.0001) > monitorFreq       = 43200.,
(PID.TID 0000.0001) > adjMonitorFreq    = 43200.,
(PID.TID 0000.0001) >#
(PID.TID 0000.0001) > tauThetaClimRelax = 2592000.0,
(PID.TID 0000.0001) > tauSaltClimRelax  = 2592000.0,
(PID.TID 0000.0001) >#tauTr1ClimRelax   = 31104000., <= moved to data.ptracers
(PID.TID 0000.0001) > /
(PID.TID 0000.0001) >
(PID.TID 0000.0001) ># Gridding parameters
(PID.TID 0000.0001) > &PARM04
(PID.TID 0000.0001) > usingSphericalPolarGrid=.TRUE.,
(PID.TID 0000.0001) > delZ= 5.000000e+01, 5.000000e+01, 5.500000e+01, 6.000000e+01,
(PID.TID 0000.0001) >       6.500000e+01, 7.000000e+01, 8.000000e+01, 9.500000e+01,
(PID.TID 0000.0001) >       1.200000e+02, 1.550000e+02, 2.000000e+02, 2.600000e+02,
(PID.TID 0000.0001) >       3.200000e+02, 4.000000e+02, 4.800000e+02, 5.700000e+02,
(PID.TID 0000.0001) >       6.550000e+02, 7.250000e+02, 7.750000e+02, 8.150000e+02,
(PID.TID 0000.0001) > ygOrigin=-80.,
(PID.TID 0000.0001) > delY=40*4.,
(PID.TID 0000.0001) > delX=90*4.,
(PID.TID 0000.0001) > /
(PID.TID 0000.0001) >
(PID.TID 0000.0001) ># Input datasets
(PID.TID 0000.0001) > &PARM05
(PID.TID 0000.0001) > hydrogThetaFile='theta.bin',
(PID.TID 0000.0001) > hydrogSaltFile='salt.bin',
(PID.TID 0000.0001) > bathyFile='topog.bin',
(PID.TID 0000.0001) > zonalWindFile='windx.bin',
(PID.TID 0000.0001) > meridWindFile='windy.bin',
(PID.TID 0000.0001) > thetaClimFile='SST.bin'
(PID.TID 0000.0001) > saltClimFile='SSS.bin'
(PID.TID 0000.0001) > /
(PID.TID 0000.0001) 
(PID.TID 0000.0001)  INI_PARMS ; starts to read PARM01
(PID.TID 0000.0001)  INI_PARMS ; read PARM01 : OK
(PID.TID 0000.0001)  INI_PARMS ; starts to read PARM02
(PID.TID 0000.0001)  INI_PARMS ; read PARM02 : OK
(PID.TID 0000.0001)  INI_PARMS ; starts to read PARM03
(PID.TID 0000.0001)  INI_PARMS ; read PARM03 : OK
(PID.TID 0000.0001)  INI_PARMS ; starts to read PARM04
(PID.TID 0000.0001)  INI_PARMS ; read PARM04 : OK
(PID.TID 0000.0001)  INI_PARMS ; starts to read PARM05
(PID.TID 0000.0001)  INI_PARMS ; read PARM05 : OK
(PID.TID 0000.0001)  INI_PARMS: finished reading file "data"
(PID.TID 0000.0001)  PACKAGES_BOOT: opening data.pkg
(PID.TID 0000.0001)  OPEN_COPY_DATA_FILE: opening file data.pkg
(PID.TID 0000.0001) // =======================================================
(PID.TID 0000.0001) // Parameter file "data.pkg"
(PID.TID 0000.0001) // =======================================================
(PID.TID 0000.0001) >#
(PID.TID 0000.0001) ># ********
(PID.TID 0000.0001) ># Packages
(PID.TID 0000.0001) ># ********
(PID.TID 0000.0001) > &PACKAGES
(PID.TID 0000.0001) > usePtracers  = .TRUE.,
(PID.TID 0000.0001) > useGMRedi    = .TRUE.,
(PID.TID 0000.0001) > useKPP       = .FALSE.,
(PID.TID 0000.0001) > useGrdchk    = .TRUE.,
(PID.TID 0000.0001) > /
(PID.TID 0000.0001) 
(PID.TID 0000.0001)  PACKAGES_BOOT: finished reading data.pkg
(PID.TID 0000.0001)  GM_READPARMS: opening data.gmredi
(PID.TID 0000.0001)  OPEN_COPY_DATA_FILE: opening file data.gmredi
(PID.TID 0000.0001) // =======================================================
(PID.TID 0000.0001) // Parameter file "data.gmredi"
(PID.TID 0000.0001) // =======================================================
(PID.TID 0000.0001) ># GM+Redi package parameters:
(PID.TID 0000.0001) >#     GM_Small_Number  :: epsilon used in computing the slope
(PID.TID 0000.0001) >#     GM_slopeSqCutoff :: slope^2 cut-off value
(PID.TID 0000.0001) >
(PID.TID 0000.0001) >#-from MOM :
(PID.TID 0000.0001) ># GM_background_K: 	G & Mc.W  diffusion coefficient
(PID.TID 0000.0001) ># GM_maxSlope    :	max slope of isopycnals
(PID.TID 0000.0001) ># GM_Scrit       :	transition for scaling diffusion coefficient
(PID.TID 0000.0001) ># GM_Sd          :	half width scaling for diffusion coefficient
(PID.TID 0000.0001) ># GM_taper_scheme:	slope clipping or one of the tapering schemes
(PID.TID 0000.0001) ># GM_Kmin_horiz  :	horizontal diffusion minimum value
(PID.TID 0000.0001) >
(PID.TID 0000.0001) >#-Option parameters (needs to "define" options in GMREDI_OPTIONS.h")
(PID.TID 0000.0001) ># GM_isopycK     :	isopycnal diffusion coefficient (default=GM_background_K)
(PID.TID 0000.0001) ># GM_AdvForm     :	turn on GM Advective form       (default=Skew flux form)
(PID.TID 0000.0001) >
(PID.TID 0000.0001) > &GM_PARM01
(PID.TID 0000.0001) >  GM_Small_Number  = 1.D-20,
(PID.TID 0000.0001) >  GM_slopeSqCutoff = 1.D+08,
(PID.TID 0000.0001) >  GM_AdvForm         = .TRUE.,
(PID.TID 0000.0001) >  GM_isopycK         = 1.1D+3,
(PID.TID 0000.0001) >  GM_background_K    = 0.9D+3,
(PID.TID 0000.0001) >#  GM_background_K    = 1.D+3,
(PID.TID 0000.0001) >  GM_taper_scheme    = 'dm95',
(PID.TID 0000.0001) >  GM_maxSlope        = 1.D-2,
(PID.TID 0000.0001) >  GM_Kmin_horiz      = 50.,
(PID.TID 0000.0001) >  GM_Scrit           = 4.D-3,
(PID.TID 0000.0001) >  GM_Sd              = 1.D-3,
(PID.TID 0000.0001) >#  GM_Visbeck_alpha   = 1.5D-2,
(PID.TID 0000.0001) >  GM_Visbeck_alpha   = 0.,
(PID.TID 0000.0001) >  GM_Visbeck_length  = 2.D+5,
(PID.TID 0000.0001) >  GM_Visbeck_depth   = 1.D+3,
(PID.TID 0000.0001) >  GM_Visbeck_maxval_K= 2.5D+3,
(PID.TID 0000.0001) > /
(PID.TID 0000.0001) >
(PID.TID 0000.0001) >
(PID.TID 0000.0001) 
(PID.TID 0000.0001)  GM_READPARMS: finished reading data.gmredi
(PID.TID 0000.0001)  PTRACERS_READPARMS: opening data.ptracers
(PID.TID 0000.0001)  OPEN_COPY_DATA_FILE: opening file data.ptracers
(PID.TID 0000.0001) // =======================================================
(PID.TID 0000.0001) // Parameter file "data.ptracers"
(PID.TID 0000.0001) // =======================================================
(PID.TID 0000.0001) ># This set-up makes is supposed to immitate salt. That is, PTRACER(:,:,:,1)
(PID.TID 0000.0001) ># should look exactly like S(:,:,:).
(PID.TID 0000.0001) > &PTRACERS_PARM01
(PID.TID 0000.0001) > PTRACERS_numInUse=1,
(PID.TID 0000.0001) > PTRACERS_advScheme=2,
(PID.TID 0000.0001) > PTRACERS_diffKh=1.E3,
(PID.TID 0000.0001) > PTRACERS_diffKr=3.E-5,
(PID.TID 0000.0001) > PTRACERS_initialFile=' ',
(PID.TID 0000.0001) > PTRACERS_ref=1., 19*0.,
(PID.TID 0000.0001) > tauTr1ClimRelax= 31104000.,
(PID.TID 0000.0001) > /
(PID.TID 0000.0001) 
(PID.TID 0000.0001)  PTRACERS_READPARMS: finished reading data.ptracers
(PID.TID 0000.0001) // ===================================
(PID.TID 0000.0001) // PTRACERS parameters
(PID.TID 0000.0001) // ===================================
(PID.TID 0000.0001) PTRACERS_numInUse = /* number of tracers */
(PID.TID 0000.0001)                       1
(PID.TID 0000.0001)     ;
(PID.TID 0000.0001) PTRACERS_Iter0 = /* timestep number when tracers are initialized */
(PID.TID 0000.0001)                       0
(PID.TID 0000.0001)     ;
(PID.TID 0000.0001) PTRACERS_addSrelax2EmP =/* add Salt relaxation to EmP */
(PID.TID 0000.0001)                   F
(PID.TID 0000.0001)     ;
(PID.TID 0000.0001) PTRACERS_dTLev =   /* Ptracer timestep ( s ) */
(PID.TID 0000.0001)    20 @  8.640000000000000E+04              /* K =  1: 20 */
(PID.TID 0000.0001)     ;
(PID.TID 0000.0001) PTRACERS_dumpFreq = /* Frequency^-1 for snapshot output (s) */
(PID.TID 0000.0001)                 8.640000000000000E+04
(PID.TID 0000.0001)     ;
(PID.TID 0000.0001) PTRACERS_taveFreq = /* Frequency^-1 for time-Aver. output (s) */
(PID.TID 0000.0001)                 0.000000000000000E+00
(PID.TID 0000.0001)     ;
(PID.TID 0000.0001) PTRACERS_useRecords = /* all tracers in 1 file */
(PID.TID 0000.0001)                   F
(PID.TID 0000.0001)     ;
(PID.TID 0000.0001) PTRACERS_timeave_mnc = /* use MNC for Tave output */
(PID.TID 0000.0001)                   F
(PID.TID 0000.0001)     ;
(PID.TID 0000.0001) PTRACERS_snapshot_mnc = /* use MNC for snapshot output */
(PID.TID 0000.0001)                   F
(PID.TID 0000.0001)     ;
(PID.TID 0000.0001) PTRACERS_pickup_write_mnc = /* use MNC for writing pickups */
(PID.TID 0000.0001)                   F
(PID.TID 0000.0001)     ;
(PID.TID 0000.0001) PTRACERS_pickup_read_mnc = /* use MNC for reading pickups */
(PID.TID 0000.0001)                   F
(PID.TID 0000.0001)     ;
(PID.TID 0000.0001)  -----------------------------------
(PID.TID 0000.0001)  tracer number :    1
(PID.TID 0000.0001) PTRACERS_names = /* Tracer short name */
(PID.TID 0000.0001)               ''
(PID.TID 0000.0001)     ;
(PID.TID 0000.0001) PTRACERS_long_names = /* Tracer long name */
(PID.TID 0000.0001)               ''
(PID.TID 0000.0001)     ;
(PID.TID 0000.0001) PTRACERS_ioLabel = /* tracer IO Label */
(PID.TID 0000.0001)               '01'
(PID.TID 0000.0001)     ;
(PID.TID 0000.0001) PTRACERS_advScheme = /* Advection Scheme */
(PID.TID 0000.0001)                       2
(PID.TID 0000.0001)     ;
(PID.TID 0000.0001) PTRACERS_ImplVertAdv = /* implicit vert. advection flag */
(PID.TID 0000.0001)                   F
(PID.TID 0000.0001)     ;
(PID.TID 0000.0001) PTRACERS_diffKh = /* Laplacian Diffusivity */
(PID.TID 0000.0001)                 1.000000000000000E+03
(PID.TID 0000.0001)     ;
(PID.TID 0000.0001) PTRACERS_diffK4 = /* Biharmonic Diffusivity */
(PID.TID 0000.0001)                 0.000000000000000E+00
(PID.TID 0000.0001)     ;
(PID.TID 0000.0001) PTRACERS_diffKrNr = /* Vertical Diffusivity */
(PID.TID 0000.0001)    20 @  3.000000000000000E-05              /* K =  1: 20 */
(PID.TID 0000.0001)     ;
(PID.TID 0000.0001) PTRACERS_useGMRedi = /* apply GM-Redi */
(PID.TID 0000.0001)                   T
(PID.TID 0000.0001)     ;
(PID.TID 0000.0001) PTRACERS_useDWNSLP = /* apply DOWN-SLOPE Flow */
(PID.TID 0000.0001)                   F
(PID.TID 0000.0001)     ;
(PID.TID 0000.0001) PTRACERS_useKPP = /* apply KPP scheme */
(PID.TID 0000.0001)                   F
(PID.TID 0000.0001)     ;
(PID.TID 0000.0001) PTRACERS_ref = /* Reference vertical profile */
(PID.TID 0000.0001)                 1.000000000000000E+00,      /* K =  1 */
(PID.TID 0000.0001)    19 @  0.000000000000000E+00              /* K =  2: 20 */
(PID.TID 0000.0001)     ;
(PID.TID 0000.0001) PTRACERS_EvPrRn =/* tracer conc. in Evap. & Rain */
(PID.TID 0000.0001)                 1.234567000000000E+05
(PID.TID 0000.0001)     ;
(PID.TID 0000.0001)  -----------------------------------
(PID.TID 0000.0001) OPTIM_READPARMS: opening data.optim
(PID.TID 0000.0001)  OPEN_COPY_DATA_FILE: opening file data.optim
(PID.TID 0000.0001) // =======================================================
(PID.TID 0000.0001) // Parameter file "data.optim"
(PID.TID 0000.0001) // =======================================================
(PID.TID 0000.0001) >#
(PID.TID 0000.0001) ># ********************************
(PID.TID 0000.0001) ># Off-line optimization parameters
(PID.TID 0000.0001) ># ********************************
(PID.TID 0000.0001) > &OPTIM
(PID.TID 0000.0001) > optimcycle=0,
(PID.TID 0000.0001) > /
(PID.TID 0000.0001) 
(PID.TID 0000.0001) OPTIM_READPARMS: finished reading data.optim
(PID.TID 0000.0001) CTRL_READPARMS: opening data.ctrl
(PID.TID 0000.0001)  OPEN_COPY_DATA_FILE: opening file data.ctrl
(PID.TID 0000.0001) // =======================================================
(PID.TID 0000.0001) // Parameter file "data.ctrl"
(PID.TID 0000.0001) // =======================================================
(PID.TID 0000.0001) >#
(PID.TID 0000.0001) >#
(PID.TID 0000.0001) ># *********************
(PID.TID 0000.0001) ># ECCO controlvariables
(PID.TID 0000.0001) ># *********************
(PID.TID 0000.0001) > &CTRL_NML
(PID.TID 0000.0001) > xx_theta_file      = 'xx_theta',
(PID.TID 0000.0001) > xx_salt_file       = 'xx_salt',
(PID.TID 0000.0001) > xx_tr1_file        = 'xx_tr1',
(PID.TID 0000.0001) > xx_hflux_file      = 'xx_hflux',
(PID.TID 0000.0001) > xx_sflux_file      = 'xx_sflux',
(PID.TID 0000.0001) > xx_tauu_file       = 'xx_tauu',
(PID.TID 0000.0001) > xx_tauv_file       = 'xx_tauv',
(PID.TID 0000.0001) > xx_diffkr_file     = 'xx_diffkr',
(PID.TID 0000.0001) > xx_kapgm_file      = 'xx_kapgm',
(PID.TID 0000.0001) > /
(PID.TID 0000.0001) >#
(PID.TID 0000.0001) ># *********************
(PID.TID 0000.0001) ># names for ctrl_pack/unpack
(PID.TID 0000.0001) ># *********************
(PID.TID 0000.0001) > &CTRL_PACKNAMES
(PID.TID 0000.0001) > /
(PID.TID 0000.0001) >
(PID.TID 0000.0001) 
(PID.TID 0000.0001) CTRL_READPARMS: finished reading data.ctrl
(PID.TID 0000.0001) COST_READPARMS: opening data.cost
(PID.TID 0000.0001)  OPEN_COPY_DATA_FILE: opening file data.cost
(PID.TID 0000.0001) // =======================================================
(PID.TID 0000.0001) // Parameter file "data.cost"
(PID.TID 0000.0001) // =======================================================
(PID.TID 0000.0001) >#
(PID.TID 0000.0001) >#
(PID.TID 0000.0001) ># ******************
(PID.TID 0000.0001) ># ECCO cost function
(PID.TID 0000.0001) ># ******************
(PID.TID 0000.0001) > &COST_NML
(PID.TID 0000.0001) >#
(PID.TID 0000.0001) > mult_tracer  = 1.,
(PID.TID 0000.0001) > mult_test    = 1.,
(PID.TID 0000.0001) > mult_atl     = 1.,
(PID.TID 0000.0001) > /
(PID.TID 0000.0001) 
(PID.TID 0000.0001) COST_READPARMS: finished reading data.cost
(PID.TID 0000.0001) GRDCHK_READPARMS: opening data.grdchk
(PID.TID 0000.0001)  OPEN_COPY_DATA_FILE: opening file data.grdchk
(PID.TID 0000.0001) // =======================================================
(PID.TID 0000.0001) // Parameter file "data.grdchk"
(PID.TID 0000.0001) // =======================================================
(PID.TID 0000.0001) >
(PID.TID 0000.0001) ># *******************
(PID.TID 0000.0001) ># ECCO gradient check
(PID.TID 0000.0001) ># *******************
(PID.TID 0000.0001) > &GRDCHK_NML
(PID.TID 0000.0001) > grdchk_eps       = 1.d-4,
(PID.TID 0000.0001) >### nbeg             = 1,
(PID.TID 0000.0001) > iGloPos          = 15,
(PID.TID 0000.0001) > jGloPos          = 5,
(PID.TID 0000.0001) > kGloPos          = 4,
(PID.TID 0000.0001) > iGloTile         = 1,
(PID.TID 0000.0001) > jgloTile         = 1,
(PID.TID 0000.0001) > nstep            = 1,
(PID.TID 0000.0001) > nend             = 4,
(PID.TID 0000.0001) ># to test xx_tr1 set 17
(PID.TID 0000.0001) > grdchkvarindex   = 17,
(PID.TID 0000.0001) > /
(PID.TID 0000.0001) 
(PID.TID 0000.0001) GRDCHK_READPARMS: finished reading data.grdchk
(PID.TID 0000.0001) 
(PID.TID 0000.0001) // =======================================================
(PID.TID 0000.0001) // Gradient check configuration  >>> START <<<
(PID.TID 0000.0001) // =======================================================
(PID.TID 0000.0001) 
(PID.TID 0000.0001)   eps:                              0.100E-03
(PID.TID 0000.0001)   First location:                           0
(PID.TID 0000.0001)   Last location:                            4
(PID.TID 0000.0001)   Increment:                                1
(PID.TID 0000.0001)   grdchkWhichProc:                          0
(PID.TID 0000.0001)   iLocTile =       1  ,    jLocTile =       1
(PID.TID 0000.0001) 
(PID.TID 0000.0001) // =======================================================
(PID.TID 0000.0001) // Gradient check configuration  >>> END <<<
(PID.TID 0000.0001) // =======================================================
(PID.TID 0000.0001) 
(PID.TID 0000.0001) SET_PARMS: done
(PID.TID 0000.0001) Enter INI_VERTICAL_GRID: setInterFDr=    T ; setCenterDr=    F
(PID.TID 0000.0001) %MON XC_max                       =   3.5800000000000E+02
(PID.TID 0000.0001) %MON XC_min                       =   2.0000000000000E+00
(PID.TID 0000.0001) %MON XC_mean                      =   1.8000000000000E+02
(PID.TID 0000.0001) %MON XC_sd                        =   1.0391663325314E+02
(PID.TID 0000.0001) %MON XG_max                       =   3.5600000000000E+02
(PID.TID 0000.0001) %MON XG_min                       =   0.0000000000000E+00
(PID.TID 0000.0001) %MON XG_mean                      =   1.7800000000000E+02
(PID.TID 0000.0001) %MON XG_sd                        =   1.0391663325314E+02
(PID.TID 0000.0001) %MON DXC_max                      =   4.4443898815675E+05
(PID.TID 0000.0001) %MON DXC_min                      =   9.2460385861875E+04
(PID.TID 0000.0001) %MON DXC_mean                     =   3.1372497618153E+05
(PID.TID 0000.0001) %MON DXC_sd                       =   1.1216447457560E+05
(PID.TID 0000.0001) %MON DXF_max                      =   4.4443898815675E+05
(PID.TID 0000.0001) %MON DXF_min                      =   9.2460385861875E+04
(PID.TID 0000.0001) %MON DXF_mean                     =   3.1372497618153E+05
(PID.TID 0000.0001) %MON DXF_sd                       =   1.1216447457560E+05
(PID.TID 0000.0001) %MON DXG_max                      =   4.4470989340816E+05
(PID.TID 0000.0001) %MON DXG_min                      =   7.7223062580781E+04
(PID.TID 0000.0001) %MON DXG_mean                     =   3.1353386340261E+05
(PID.TID 0000.0001) %MON DXG_sd                       =   1.1256651772502E+05
(PID.TID 0000.0001) %MON DXV_max                      =   4.4470989340816E+05
(PID.TID 0000.0001) %MON DXV_min                      =   7.7223062580781E+04
(PID.TID 0000.0001) %MON DXV_mean                     =   3.1353386340261E+05
(PID.TID 0000.0001) %MON DXV_sd                       =   1.1256651772502E+05
(PID.TID 0000.0001) %MON YC_max                       =   7.8000000000000E+01
(PID.TID 0000.0001) %MON YC_min                       =  -7.8000000000000E+01
(PID.TID 0000.0001) %MON YC_mean                      =   0.0000000000000E+00
(PID.TID 0000.0001) %MON YC_sd                        =   4.6173585522461E+01
(PID.TID 0000.0001) %MON YG_max                       =   7.6000000000000E+01
(PID.TID 0000.0001) %MON YG_min                       =  -8.0000000000000E+01
(PID.TID 0000.0001) %MON YG_mean                      =  -2.0000000000000E+00
(PID.TID 0000.0001) %MON YG_sd                        =   4.6173585522461E+01
(PID.TID 0000.0001) %MON DYC_max                      =   4.4470989340816E+05
(PID.TID 0000.0001) %MON DYC_min                      =   4.4470989340816E+05
(PID.TID 0000.0001) %MON DYC_mean                     =   4.4470989340816E+05
(PID.TID 0000.0001) %MON DYC_sd                       =   5.2968971431255E-09
(PID.TID 0000.0001) %MON DYF_max                      =   4.4470989340816E+05
(PID.TID 0000.0001) %MON DYF_min                      =   4.4470989340816E+05
(PID.TID 0000.0001) %MON DYF_mean                     =   4.4470989340816E+05
(PID.TID 0000.0001) %MON DYF_sd                       =   5.2968971431255E-09
(PID.TID 0000.0001) %MON DYG_max                      =   4.4470989340816E+05
(PID.TID 0000.0001) %MON DYG_min                      =   4.4470989340816E+05
(PID.TID 0000.0001) %MON DYG_mean                     =   4.4470989340816E+05
(PID.TID 0000.0001) %MON DYG_sd                       =   5.2968971431255E-09
(PID.TID 0000.0001) %MON DYU_max                      =   4.4470989340816E+05
(PID.TID 0000.0001) %MON DYU_min                      =   4.4470989340816E+05
(PID.TID 0000.0001) %MON DYU_mean                     =   4.4470989340816E+05
(PID.TID 0000.0001) %MON DYU_sd                       =   5.2968971431255E-09
(PID.TID 0000.0001) %MON RA_max                       =   1.9760627980089E+11
(PID.TID 0000.0001) %MON RA_min                       =   4.1109698667290E+10
(PID.TID 0000.0001) %MON RA_mean                      =   1.3948826965196E+11
(PID.TID 0000.0001) %MON RA_sd                        =   4.9870522472902E+10
(PID.TID 0000.0001) %MON RAW_max                      =   1.9760627980089E+11
(PID.TID 0000.0001) %MON RAW_min                      =   4.1109698667290E+10
(PID.TID 0000.0001) %MON RAW_mean                     =   1.3948826965196E+11
(PID.TID 0000.0001) %MON RAW_sd                       =   4.9870522472902E+10
(PID.TID 0000.0001) %MON RAS_max                      =   1.9772672958215E+11
(PID.TID 0000.0001) %MON RAS_min                      =   3.4334886267983E+10
(PID.TID 0000.0001) %MON RAS_mean                     =   1.3940329716694E+11
(PID.TID 0000.0001) %MON RAS_sd                       =   5.0049278732353E+10
(PID.TID 0000.0001) %MON RAZ_max                      =   1.9772672958215E+11
(PID.TID 0000.0001) %MON RAZ_min                      =   3.4334886267983E+10
(PID.TID 0000.0001) %MON RAZ_mean                     =   1.3940329716694E+11
(PID.TID 0000.0001) %MON RAZ_sd                       =   5.0049278732353E+10
(PID.TID 0000.0001) %MON AngleCS_max                  =   1.0000000000000E+00
(PID.TID 0000.0001) %MON AngleCS_min                  =   1.0000000000000E+00
(PID.TID 0000.0001) %MON AngleCS_mean                 =   1.0000000000000E+00
(PID.TID 0000.0001) %MON AngleCS_sd                   =   0.0000000000000E+00
(PID.TID 0000.0001) %MON AngleSN_max                  =   0.0000000000000E+00
(PID.TID 0000.0001) %MON AngleSN_min                  =   0.0000000000000E+00
(PID.TID 0000.0001) %MON AngleSN_mean                 =   0.0000000000000E+00
(PID.TID 0000.0001) %MON AngleSN_sd                   =   0.0000000000000E+00
(PID.TID 0000.0001) GAD_INIT_FIXED: GAD_OlMinSize=  1  0  1
(PID.TID 0000.0001) 
(PID.TID 0000.0001) // ===================================
(PID.TID 0000.0001) // GAD parameters :
(PID.TID 0000.0001) // ===================================
(PID.TID 0000.0001) tempAdvScheme =   /* Temp. Horiz.Advection scheme selector */
(PID.TID 0000.0001)                       2
(PID.TID 0000.0001)     ;
(PID.TID 0000.0001) tempVertAdvScheme =   /* Temp. Vert. Advection scheme selector */
(PID.TID 0000.0001)                       2
(PID.TID 0000.0001)     ;
(PID.TID 0000.0001) tempMultiDimAdvec =   /* use Muti-Dim Advec method for Temp */
(PID.TID 0000.0001)                   F
(PID.TID 0000.0001)     ;
(PID.TID 0000.0001) tempSOM_Advection = /* use 2nd Order Moment Advection for Temp */
(PID.TID 0000.0001)                   F
(PID.TID 0000.0001)     ;
(PID.TID 0000.0001) AdamsBashforthGt = /* apply Adams-Bashforth extrapolation on Gt */
(PID.TID 0000.0001)                   T
(PID.TID 0000.0001)     ;
(PID.TID 0000.0001) AdamsBashforth_T = /* apply Adams-Bashforth extrapolation on Temp */
(PID.TID 0000.0001)                   F
(PID.TID 0000.0001)     ;
(PID.TID 0000.0001) saltAdvScheme =   /* Salt. Horiz.advection scheme selector */
(PID.TID 0000.0001)                       2
(PID.TID 0000.0001)     ;
(PID.TID 0000.0001) saltVertAdvScheme =   /* Salt. Vert. Advection scheme selector */
(PID.TID 0000.0001)                       2
(PID.TID 0000.0001)     ;
(PID.TID 0000.0001) saltMultiDimAdvec =   /* use Muti-Dim Advec method for Salt */
(PID.TID 0000.0001)                   F
(PID.TID 0000.0001)     ;
(PID.TID 0000.0001) saltSOM_Advection = /* use 2nd Order Moment Advection for Salt */
(PID.TID 0000.0001)                   F
(PID.TID 0000.0001)     ;
(PID.TID 0000.0001) AdamsBashforthGs = /* apply Adams-Bashforth extrapolation on Gs */
(PID.TID 0000.0001)                   T
(PID.TID 0000.0001)     ;
(PID.TID 0000.0001) AdamsBashforth_S = /* apply Adams-Bashforth extrapolation on Salt */
(PID.TID 0000.0001)                   F
(PID.TID 0000.0001)     ;
(PID.TID 0000.0001) // ===================================
(PID.TID 0000.0001) ctrl-wet 1:    nvarlength =       160348
(PID.TID 0000.0001) ctrl-wet 2: surface wet C =          616
(PID.TID 0000.0001) ctrl-wet 3: surface wet W =          586
(PID.TID 0000.0001) ctrl-wet 4: surface wet S =          557
(PID.TID 0000.0001) ctrl-wet 4a:surface wet V =            0
(PID.TID 0000.0001) ctrl-wet 5: 3D wet points =        10880
(PID.TID 0000.0001) ctrl-wet 6: no recs for i =     1           1
(PID.TID 0000.0001) ctrl-wet 6: no recs for i =     2           1
(PID.TID 0000.0001) ctrl-wet 6: no recs for i =     3           1
(PID.TID 0000.0001) ctrl-wet 6: no recs for i =     4           1
(PID.TID 0000.0001) ctrl-wet 6: no recs for i =     5           1
(PID.TID 0000.0001) ctrl-wet 6: no recs for i =     6           1
(PID.TID 0000.0001) ctrl-wet 6: no recs for i =     7           0
(PID.TID 0000.0001) ctrl-wet 6: no recs for i =     8           0
(PID.TID 0000.0001) ctrl-wet 6: no recs for i =     9           0
(PID.TID 0000.0001) ctrl-wet 6: no recs for i =    10           0
(PID.TID 0000.0001) ctrl-wet 6: no recs for i =    11           0
(PID.TID 0000.0001) ctrl-wet 6: no recs for i =    12           0
(PID.TID 0000.0001) ctrl-wet 6: no recs for i =    13           0
(PID.TID 0000.0001) ctrl-wet 6: no recs for i =    14           0
(PID.TID 0000.0001) ctrl-wet 6: no recs for i =    15           1
(PID.TID 0000.0001) ctrl-wet 6: no recs for i =    16           0
(PID.TID 0000.0001) ctrl-wet 6: no recs for i =    17           1
(PID.TID 0000.0001) ctrl-wet 6: no recs for i =    18           0
(PID.TID 0000.0001) ctrl-wet 6: no recs for i =    19           0
(PID.TID 0000.0001) ctrl-wet 6: no recs for i =    20           0
(PID.TID 0000.0001) ctrl-wet 6: no recs for i =    21           0
(PID.TID 0000.0001) ctrl-wet 6: no recs for i =    22           0
(PID.TID 0000.0001) ctrl-wet 6: no recs for i =    23           0
(PID.TID 0000.0001) ctrl-wet 6: no recs for i =    24           0
(PID.TID 0000.0001) ctrl-wet 6: no recs for i =    25           0
(PID.TID 0000.0001) ctrl-wet 6: no recs for i =    26           0
(PID.TID 0000.0001) ctrl-wet 6: no recs for i =    27           0
(PID.TID 0000.0001) ctrl-wet 6: no recs for i =    28           0
(PID.TID 0000.0001) ctrl-wet 6: no recs for i =    29           0
(PID.TID 0000.0001) ctrl-wet 6: no recs for i =    30           0
(PID.TID 0000.0001) ctrl-wet 6: no recs for i =    31           0
(PID.TID 0000.0001) ctrl-wet 6: no recs for i =    32           0
(PID.TID 0000.0001) ctrl-wet 6: no recs for i =    33           0
(PID.TID 0000.0001) ctrl-wet 6: no recs for i =    34           0
(PID.TID 0000.0001) ctrl-wet 6: no recs for i =    35           0
(PID.TID 0000.0001) ctrl-wet 6: no recs for i =    36           0
(PID.TID 0000.0001) ctrl-wet 6: no recs for i =    37           0
(PID.TID 0000.0001) ctrl-wet 6: no recs for i =    38           0
(PID.TID 0000.0001) ctrl-wet 6: no recs for i =    39           0
(PID.TID 0000.0001) ctrl-wet 6: no recs for i =    40           0
(PID.TID 0000.0001) ctrl-wet 6: no recs for i =    41           0
(PID.TID 0000.0001) ctrl-wet 6: no recs for i =    42           0
(PID.TID 0000.0001) ctrl-wet 6: no recs for i =    43           0
(PID.TID 0000.0001) ctrl-wet 6: no recs for i =    44           0
(PID.TID 0000.0001) ctrl-wet 6: no recs for i =    45           0
(PID.TID 0000.0001) ctrl-wet 6: no recs for i =    46           0
(PID.TID 0000.0001) ctrl-wet 6: no recs for i =    47           0
(PID.TID 0000.0001) ctrl-wet 6: no recs for i =    48           0
(PID.TID 0000.0001) ctrl-wet 6: no recs for i =    49           0
(PID.TID 0000.0001) ctrl-wet 6: no recs for i =    50           0
(PID.TID 0000.0001) ctrl-wet 6: no recs for i =    51           0
(PID.TID 0000.0001) ctrl-wet 6: no recs for i =    52           0
(PID.TID 0000.0001) ctrl-wet 6: no recs for i =    53           0
(PID.TID 0000.0001) ctrl-wet 6: no recs for i =    54           0
(PID.TID 0000.0001) ctrl-wet 6: no recs for i =    55           0
(PID.TID 0000.0001) ctrl-wet 6: no recs for i =    56           0
(PID.TID 0000.0001) ctrl-wet 6: no recs for i =    57           0
(PID.TID 0000.0001) ctrl-wet 6: no recs for i =    58           0
(PID.TID 0000.0001) ctrl-wet 6: no recs for i =    59           0
(PID.TID 0000.0001) ctrl-wet 6: no recs for i =    60           0
(PID.TID 0000.0001) ctrl-wet 7: flux         24135
(PID.TID 0000.0001) ctrl-wet 8: atmos        21760
(PID.TID 0000.0001) ctrl-wet -------------------------------------------------
(PID.TID 0000.0001) ctrl-wet 13: global nvarlength for Nr =   20      160348
(PID.TID 0000.0001) ctrl-wet -------------------------------------------------
(PID.TID 0000.0001) ctrl-wet 14: global nWet C/S/W/V k=    1        2158        2004        2052           0
(PID.TID 0000.0001) ctrl-wet 14: global nWet C/S/W/V k=    2        2155        2003        2049           0
(PID.TID 0000.0001) ctrl-wet 14: global nWet C/S/W/V k=    3        2154        2002        2048           0
(PID.TID 0000.0001) ctrl-wet 14: global nWet C/S/W/V k=    4        2151        2000        2047           0
(PID.TID 0000.0001) ctrl-wet 14: global nWet C/S/W/V k=    5        2148        1997        2044           0
(PID.TID 0000.0001) ctrl-wet 14: global nWet C/S/W/V k=    6        2143        1993        2040           0
(PID.TID 0000.0001) ctrl-wet 14: global nWet C/S/W/V k=    7        2143        1993        2040           0
(PID.TID 0000.0001) ctrl-wet 14: global nWet C/S/W/V k=    8        2141        1993        2038           0
(PID.TID 0000.0001) ctrl-wet 14: global nWet C/S/W/V k=    9        2139        1991        2036           0
(PID.TID 0000.0001) ctrl-wet 14: global nWet C/S/W/V k=   10        2134        1986        2030           0
(PID.TID 0000.0001) ctrl-wet 14: global nWet C/S/W/V k=   11        2126        1977        2022           0
(PID.TID 0000.0001) ctrl-wet 14: global nWet C/S/W/V k=   12        2108        1961        2003           0
(PID.TID 0000.0001) ctrl-wet 14: global nWet C/S/W/V k=   13        2101        1954        1995           0
(PID.TID 0000.0001) ctrl-wet 14: global nWet C/S/W/V k=   14        2086        1938        1981           0
(PID.TID 0000.0001) ctrl-wet 14: global nWet C/S/W/V k=   15        2054        1903        1946           0
(PID.TID 0000.0001) ctrl-wet 14: global nWet C/S/W/V k=   16        1998        1841        1879           0
(PID.TID 0000.0001) ctrl-wet 14: global nWet C/S/W/V k=   17        1844        1650        1702           0
(PID.TID 0000.0001) ctrl-wet 14: global nWet C/S/W/V k=   18        1180         951         996           0
(PID.TID 0000.0001) ctrl-wet 14: global nWet C/S/W/V k=   19         754         556         602           0
(PID.TID 0000.0001) ctrl-wet 14: global nWet C/S/W/V k=   20         277         168         186           0
(PID.TID 0000.0001) ctrl-wet -------------------------------------------------
(PID.TID 0000.0001) ctrl-wet -------------------------------------------------
(PID.TID 0000.0001) ctrl-wet -------------------------------------------------
(PID.TID 0000.0001) ctrl_init: no. of control variables:            8
(PID.TID 0000.0001) ctrl_init: control vector length:          160348
(PID.TID 0000.0001) PTRACERS_INIT_FIXED: PTRACERS_SOM_Advection(   1) =     F
(PID.TID 0000.0001) PTRACERS_INIT_FIXED: GAD_OlMinSize=  1  0  1
(PID.TID 0000.0001) %MON fCori_max                    =   1.4226580169407E-04
(PID.TID 0000.0001) %MON fCori_min                    =  -1.4226580169407E-04
(PID.TID 0000.0001) %MON fCori_mean                   =  -1.9274705288631E-19
(PID.TID 0000.0001) %MON fCori_sd                     =   9.6335367303779E-05
(PID.TID 0000.0001) %MON fCoriG_max                   =   1.4112379284621E-04
(PID.TID 0000.0001) %MON fCoriG_min                   =  -1.4323448157692E-04
(PID.TID 0000.0001) %MON fCoriG_mean                  =  -3.5808620394228E-06
(PID.TID 0000.0001) %MON fCoriG_sd                    =   9.6285194120965E-05
(PID.TID 0000.0001) %MON fCoriCos_max                 =   1.4535550371427E-04
(PID.TID 0000.0001) %MON fCoriCos_min                 =   3.0239529651320E-05
(PID.TID 0000.0001) %MON fCoriCos_mean                =   1.0260497651149E-04
(PID.TID 0000.0001) %MON fCoriCos_sd                  =   3.6683828681187E-05
(PID.TID 0000.0001) INI_CG2D: CG2D normalisation factor =  8.8319877372200804E-05
(PID.TID 0000.0001) 
(PID.TID 0000.0001) // =======================================================
(PID.TID 0000.0001) // Model configuration
(PID.TID 0000.0001) // =======================================================
(PID.TID 0000.0001) //
(PID.TID 0000.0001) // "Physical" paramters ( PARM01 in namelist )
(PID.TID 0000.0001) //
(PID.TID 0000.0001) buoyancyRelation = /* Type of relation to get Buoyancy */
(PID.TID 0000.0001)               'OCEANIC'
(PID.TID 0000.0001)     ;
(PID.TID 0000.0001) fluidIsAir   =  /* fluid major constituent is Air */
(PID.TID 0000.0001)                   F
(PID.TID 0000.0001)     ;
(PID.TID 0000.0001) fluidIsWater =  /* fluid major constituent is Water */
(PID.TID 0000.0001)                   T
(PID.TID 0000.0001)     ;
(PID.TID 0000.0001) usingPCoords =  /* use p (or p*) vertical coordinate */
(PID.TID 0000.0001)                   F
(PID.TID 0000.0001)     ;
(PID.TID 0000.0001) usingZCoords =  /* use z (or z*) vertical coordinate */
(PID.TID 0000.0001)                   T
(PID.TID 0000.0001)     ;
(PID.TID 0000.0001) tRef =   /* Reference temperature profile ( oC or K ) */
(PID.TID 0000.0001)                 1.600000000000000E+01,      /* K =  1 */
(PID.TID 0000.0001)                 1.520000000000000E+01,      /* K =  2 */
(PID.TID 0000.0001)                 1.450000000000000E+01,      /* K =  3 */
(PID.TID 0000.0001)                 1.390000000000000E+01,      /* K =  4 */
(PID.TID 0000.0001)                 1.330000000000000E+01,      /* K =  5 */
(PID.TID 0000.0001)                 1.240000000000000E+01,      /* K =  6 */
(PID.TID 0000.0001)                 1.130000000000000E+01,      /* K =  7 */
(PID.TID 0000.0001)                 9.900000000000000E+00,      /* K =  8 */
(PID.TID 0000.0001)                 8.400000000000000E+00,      /* K =  9 */
(PID.TID 0000.0001)                 6.700000000000000E+00,      /* K = 10 */
(PID.TID 0000.0001)                 5.200000000000000E+00,      /* K = 11 */
(PID.TID 0000.0001)                 3.800000000000000E+00,      /* K = 12 */
(PID.TID 0000.0001)                 2.900000000000000E+00,      /* K = 13 */
(PID.TID 0000.0001)                 2.300000000000000E+00,      /* K = 14 */
(PID.TID 0000.0001)                 1.800000000000000E+00,      /* K = 15 */
(PID.TID 0000.0001)                 1.500000000000000E+00,      /* K = 16 */
(PID.TID 0000.0001)                 1.100000000000000E+00,      /* K = 17 */
(PID.TID 0000.0001)                 8.000000000000000E-01,      /* K = 18 */
(PID.TID 0000.0001)                 6.600000000000000E-01,      /* K = 19 */
(PID.TID 0000.0001)                 6.300000000000000E-01       /* K = 20 */
(PID.TID 0000.0001)     ;
(PID.TID 0000.0001) sRef =   /* Reference salinity profile ( psu ) */
(PID.TID 0000.0001)                 3.465000000000000E+01,      /* K =  1 */
(PID.TID 0000.0001)                 3.475000000000000E+01,      /* K =  2 */
(PID.TID 0000.0001)                 3.482000000000000E+01,      /* K =  3 */
(PID.TID 0000.0001)                 3.487000000000000E+01,      /* K =  4 */
(PID.TID 0000.0001)     2 @  3.490000000000000E+01,             /* K =  5:  6 */
(PID.TID 0000.0001)                 3.486000000000000E+01,      /* K =  7 */
(PID.TID 0000.0001)                 3.478000000000000E+01,      /* K =  8 */
(PID.TID 0000.0001)                 3.469000000000000E+01,      /* K =  9 */
(PID.TID 0000.0001)                 3.460000000000000E+01,      /* K = 10 */
(PID.TID 0000.0001)                 3.458000000000000E+01,      /* K = 11 */
(PID.TID 0000.0001)                 3.462000000000000E+01,      /* K = 12 */
(PID.TID 0000.0001)                 3.468000000000000E+01,      /* K = 13 */
(PID.TID 0000.0001)                 3.472000000000000E+01,      /* K = 14 */
(PID.TID 0000.0001)                 3.473000000000000E+01,      /* K = 15 */
(PID.TID 0000.0001)                 3.474000000000000E+01,      /* K = 16 */
(PID.TID 0000.0001)     2 @  3.473000000000000E+01,             /* K = 17: 18 */
(PID.TID 0000.0001)     2 @  3.472000000000000E+01              /* K = 19: 20 */
(PID.TID 0000.0001)     ;
(PID.TID 0000.0001) viscAh  =   /* Lateral eddy viscosity ( m^2/s ) */
(PID.TID 0000.0001)                 5.000000000000000E+05
(PID.TID 0000.0001)     ;
(PID.TID 0000.0001) viscAhMax = /* Maximum lateral eddy viscosity ( m^2/s ) */
(PID.TID 0000.0001)                 1.000000000000000E+21
(PID.TID 0000.0001)     ;
(PID.TID 0000.0001) viscAhGrid = /* Grid dependent lateral eddy viscosity ( non-dim. ) */
(PID.TID 0000.0001)                 0.000000000000000E+00
(PID.TID 0000.0001)     ;
(PID.TID 0000.0001) useFullLeith = /* Use Full Form of Leith Viscosity on/off flag*/
(PID.TID 0000.0001)                   F
(PID.TID 0000.0001)     ;
(PID.TID 0000.0001) useStrainTensionVisc= /* Use StrainTension Form of Viscous Operator flag*/
(PID.TID 0000.0001)                   F
(PID.TID 0000.0001)     ;
(PID.TID 0000.0001) useAreaViscLength = /* Use area for visc length instead of geom. mean*/
(PID.TID 0000.0001)                   F
(PID.TID 0000.0001)     ;
(PID.TID 0000.0001) viscC2leith = /* Leith harmonic visc. factor (on grad(vort),non-dim.) */
(PID.TID 0000.0001)                 0.000000000000000E+00
(PID.TID 0000.0001)     ;
(PID.TID 0000.0001) viscC2leithD = /* Leith harmonic viscosity factor (on grad(div),non-dim.)*/
(PID.TID 0000.0001)                 0.000000000000000E+00
(PID.TID 0000.0001)     ;
(PID.TID 0000.0001) viscC2smag = /* Smagorinsky harmonic viscosity factor (non-dim.) */
(PID.TID 0000.0001)                 0.000000000000000E+00
(PID.TID 0000.0001)     ;
(PID.TID 0000.0001) viscA4  =   /* Lateral biharmonic viscosity ( m^4/s ) */
(PID.TID 0000.0001)                 0.000000000000000E+00
(PID.TID 0000.0001)     ;
(PID.TID 0000.0001) viscA4Max = /* Maximum biharmonic viscosity ( m^2/s ) */
(PID.TID 0000.0001)                 1.000000000000000E+21
(PID.TID 0000.0001)     ;
(PID.TID 0000.0001) viscA4Grid = /* Grid dependent biharmonic viscosity ( non-dim. ) */
(PID.TID 0000.0001)                 0.000000000000000E+00
(PID.TID 0000.0001)     ;
(PID.TID 0000.0001) viscC4leith = /* Leith biharm viscosity factor (on grad(vort), non-dim.)*/
(PID.TID 0000.0001)                 0.000000000000000E+00
(PID.TID 0000.0001)     ;
(PID.TID 0000.0001) viscC4leithD = /* Leith biharm viscosity factor (on grad(div), non-dim.) */
(PID.TID 0000.0001)                 0.000000000000000E+00
(PID.TID 0000.0001)     ;
(PID.TID 0000.0001) viscC4Smag = /* Smagorinsky biharm viscosity factor (non-dim) */
(PID.TID 0000.0001)                 0.000000000000000E+00
(PID.TID 0000.0001)     ;
(PID.TID 0000.0001) no_slip_sides =  /* Viscous BCs: No-slip sides */
(PID.TID 0000.0001)                   F
(PID.TID 0000.0001)     ;
(PID.TID 0000.0001) sideDragFactor = /* side-drag scaling factor (non-dim) */
(PID.TID 0000.0001)                 2.000000000000000E+00
(PID.TID 0000.0001)     ;
(PID.TID 0000.0001) viscArNr = /* vertical profile of vertical viscosity ( m^2/s )*/
(PID.TID 0000.0001)    20 @  1.000000000000000E-03              /* K =  1: 20 */
(PID.TID 0000.0001)     ;
(PID.TID 0000.0001) no_slip_bottom =  /* Viscous BCs: No-slip bottom */
(PID.TID 0000.0001)                   T
(PID.TID 0000.0001)     ;
(PID.TID 0000.0001) bottomDragLinear = /* linear bottom-drag coefficient ( m/s ) */
(PID.TID 0000.0001)                 0.000000000000000E+00
(PID.TID 0000.0001)     ;
(PID.TID 0000.0001) bottomDragQuadratic = /* quadratic bottom-drag coefficient (-) */
(PID.TID 0000.0001)                 0.000000000000000E+00
(PID.TID 0000.0001)     ;
(PID.TID 0000.0001) diffKhT =   /* Laplacian diffusion of heat laterally ( m^2/s ) */
(PID.TID 0000.0001)                 1.000000000000000E+03
(PID.TID 0000.0001)     ;
(PID.TID 0000.0001) diffK4T =   /* Biharmonic diffusion of heat laterally ( m^4/s ) */
(PID.TID 0000.0001)                 0.000000000000000E+00
(PID.TID 0000.0001)     ;
(PID.TID 0000.0001) diffKhS =   /* Laplacian diffusion of salt laterally ( m^2/s ) */
(PID.TID 0000.0001)                 1.000000000000000E+03
(PID.TID 0000.0001)     ;
(PID.TID 0000.0001) diffK4S =   /* Biharmonic diffusion of salt laterally ( m^4/s ) */
(PID.TID 0000.0001)                 0.000000000000000E+00
(PID.TID 0000.0001)     ;
(PID.TID 0000.0001) diffKrNrT = /* vertical profile of vertical diffusion of Temp ( m^2/s )*/
(PID.TID 0000.0001)    20 @  3.000000000000000E-05              /* K =  1: 20 */
(PID.TID 0000.0001)     ;
(PID.TID 0000.0001) diffKrNrS = /* vertical profile of vertical diffusion of Salt ( m^2/s )*/
(PID.TID 0000.0001)    20 @  3.000000000000000E-05              /* K =  1: 20 */
(PID.TID 0000.0001)     ;
(PID.TID 0000.0001) diffKrBL79surf = /* Surface diffusion for Bryan and Lewis 79 ( m^2/s ) */
(PID.TID 0000.0001)                 0.000000000000000E+00
(PID.TID 0000.0001)     ;
(PID.TID 0000.0001) diffKrBL79deep = /* Deep diffusion for Bryan and Lewis 1979 ( m^2/s ) */
(PID.TID 0000.0001)                 0.000000000000000E+00
(PID.TID 0000.0001)     ;
(PID.TID 0000.0001) diffKrBL79scl = /* Depth scale for Bryan and Lewis 1979 ( m ) */
(PID.TID 0000.0001)                 2.000000000000000E+02
(PID.TID 0000.0001)     ;
(PID.TID 0000.0001) diffKrBL79Ho = /* Turning depth for Bryan and Lewis 1979 ( m ) */
(PID.TID 0000.0001)                -2.000000000000000E+03
(PID.TID 0000.0001)     ;
(PID.TID 0000.0001) ivdc_kappa = /* Implicit Vertical Diffusivity for Convection ( m^2/s) */
(PID.TID 0000.0001)                 0.000000000000000E+00
(PID.TID 0000.0001)     ;
(PID.TID 0000.0001) hMixCriteria=  /* Criteria for mixed-layer diagnostic */
(PID.TID 0000.0001)                -8.000000000000000E-01
(PID.TID 0000.0001)     ;
(PID.TID 0000.0001) dRhoSmall =  /* Parameter for mixed-layer diagnostic */
(PID.TID 0000.0001)                 1.000000000000000E-06
(PID.TID 0000.0001)     ;
(PID.TID 0000.0001) hMixSmooth=  /* Smoothing parameter for mixed-layer diagnostic */
(PID.TID 0000.0001)                 0.000000000000000E+00
(PID.TID 0000.0001)     ;
(PID.TID 0000.0001) eosType =  /* Type of Equation of State */
(PID.TID 0000.0001)               'LINEAR'
(PID.TID 0000.0001)     ;
(PID.TID 0000.0001) tAlpha =   /* Linear EOS thermal expansion coefficient ( 1/oC ) */
(PID.TID 0000.0001)                 2.000000000000000E-04
(PID.TID 0000.0001)     ;
(PID.TID 0000.0001) sBeta =   /* Linear EOS haline contraction coefficient ( 1/psu ) */
(PID.TID 0000.0001)                 7.400000000000000E-04
(PID.TID 0000.0001)     ;
(PID.TID 0000.0001) rhonil =   /* Reference density ( kg/m^3 ) */
(PID.TID 0000.0001)                 9.998000000000000E+02
(PID.TID 0000.0001)     ;
(PID.TID 0000.0001) rhoConst =   /* Reference density ( kg/m^3 ) */
(PID.TID 0000.0001)                 9.998000000000000E+02
(PID.TID 0000.0001)     ;
(PID.TID 0000.0001) rhoFacC = /* normalized Reference density @ cell-Center (-) */
(PID.TID 0000.0001)    20 @  1.000000000000000E+00              /* K =  1: 20 */
(PID.TID 0000.0001)     ;
(PID.TID 0000.0001) rhoFacF = /* normalized Reference density @ W-Interface (-) */
(PID.TID 0000.0001)    21 @  1.000000000000000E+00              /* K =  1: 21 */
(PID.TID 0000.0001)     ;
(PID.TID 0000.0001) rhoConstFresh =   /* Reference density ( kg/m^3 ) */
(PID.TID 0000.0001)                 9.998000000000000E+02
(PID.TID 0000.0001)     ;
(PID.TID 0000.0001) gravity =   /* Gravitational acceleration ( m/s^2 ) */
(PID.TID 0000.0001)                 9.810000000000000E+00
(PID.TID 0000.0001)     ;
(PID.TID 0000.0001) gBaro =   /* Barotropic gravity ( m/s^2 ) */
(PID.TID 0000.0001)                 9.810000000000000E+00
(PID.TID 0000.0001)     ;
(PID.TID 0000.0001) rotationPeriod =   /* Rotation Period ( s ) */
(PID.TID 0000.0001)                 8.640000000000000E+04
(PID.TID 0000.0001)     ;
(PID.TID 0000.0001) omega =   /* Angular velocity ( rad/s ) */
(PID.TID 0000.0001)                 7.272205216643040E-05
(PID.TID 0000.0001)     ;
(PID.TID 0000.0001) f0 =   /* Reference coriolis parameter ( 1/s ) */
(PID.TID 0000.0001)                 1.000000000000000E-04
(PID.TID 0000.0001)     ;
(PID.TID 0000.0001) beta =   /* Beta ( 1/(m.s) ) */
(PID.TID 0000.0001)                 9.999999999999999E-12
(PID.TID 0000.0001)     ;
(PID.TID 0000.0001) fPrime =   /* Second coriolis parameter ( 1/s ) */
(PID.TID 0000.0001)                 0.000000000000000E+00
(PID.TID 0000.0001)     ;
(PID.TID 0000.0001) rigidLid =   /* Rigid lid on/off flag */
(PID.TID 0000.0001)                   F
(PID.TID 0000.0001)     ;
(PID.TID 0000.0001) implicitFreeSurface =   /* Implicit free surface on/off flag */
(PID.TID 0000.0001)                   T
(PID.TID 0000.0001)     ;
(PID.TID 0000.0001) freeSurfFac =   /* Implicit free surface factor */
(PID.TID 0000.0001)                 1.000000000000000E+00
(PID.TID 0000.0001)     ;
(PID.TID 0000.0001) implicSurfPress =  /* Surface Pressure implicit factor (0-1)*/
(PID.TID 0000.0001)                 1.000000000000000E+00
(PID.TID 0000.0001)     ;
(PID.TID 0000.0001) implicDiv2Dflow =  /* Barot. Flow Div. implicit factor (0-1)*/
(PID.TID 0000.0001)                 1.000000000000000E+00
(PID.TID 0000.0001)     ;
(PID.TID 0000.0001) exactConserv =  /* Exact Volume Conservation on/off flag*/
(PID.TID 0000.0001)                   T
(PID.TID 0000.0001)     ;
(PID.TID 0000.0001) linFSConserveTr = /* Tracer correction for Lin Free Surface on/off flag*/
(PID.TID 0000.0001)                   F
(PID.TID 0000.0001)     ;
(PID.TID 0000.0001) uniformLin_PhiSurf = /* use uniform Bo_surf on/off flag*/
(PID.TID 0000.0001)                   T
(PID.TID 0000.0001)     ;
(PID.TID 0000.0001) hFacMin =   /* minimum partial cell factor (hFac) */
(PID.TID 0000.0001)                 1.000000000000000E+00
(PID.TID 0000.0001)     ;
(PID.TID 0000.0001) hFacMinDr = /* minimum partial cell thickness ( m) */
(PID.TID 0000.0001)                 1.000000000000000E+00
(PID.TID 0000.0001)     ;
(PID.TID 0000.0001) nonlinFreeSurf = /* Non-linear Free Surf. options (-1,0,1,2,3)*/
(PID.TID 0000.0001)                       2
(PID.TID 0000.0001)      -1,0= Off ; 1,2,3= On, 2=+rescale gU,gV, 3=+update cg2d solv.
(PID.TID 0000.0001)     ;
(PID.TID 0000.0001) hFacInf =   /* lower threshold for hFac (nonlinFreeSurf only)*/
(PID.TID 0000.0001)                 2.000000000000000E-01
(PID.TID 0000.0001)     ;
(PID.TID 0000.0001) hFacSup =   /* upper threshold for hFac (nonlinFreeSurf only)*/
(PID.TID 0000.0001)                 2.000000000000000E+00
(PID.TID 0000.0001)     ;
(PID.TID 0000.0001) select_rStar = /* r* Vertical coord. options (=0 r coord.; >0 uses r*)*/
(PID.TID 0000.0001)                       2
(PID.TID 0000.0001)     ;
(PID.TID 0000.0001) selectAddFluid = /* option for mass source/sink of fluid (=0: off) */
(PID.TID 0000.0001)                       0
(PID.TID 0000.0001)     ;
(PID.TID 0000.0001) useRealFreshWaterFlux = /* Real Fresh Water Flux on/off flag*/
(PID.TID 0000.0001)                   F
(PID.TID 0000.0001)     ;
(PID.TID 0000.0001) temp_EvPrRn = /* Temp. of Evap/Prec/R (UNSET=use local T)(oC)*/
(PID.TID 0000.0001)                 1.234567000000000E+05
(PID.TID 0000.0001)     ;
(PID.TID 0000.0001) salt_EvPrRn = /* Salin. of Evap/Prec/R (UNSET=use local S)(psu)*/
(PID.TID 0000.0001)                 0.000000000000000E+00
(PID.TID 0000.0001)     ;
(PID.TID 0000.0001) temp_addMass = /* Temp. of addMass array (UNSET=use local T)(oC)*/
(PID.TID 0000.0001)                 1.234567000000000E+05
(PID.TID 0000.0001)     ;
(PID.TID 0000.0001) salt_addMass = /* Salin. of addMass array (UNSET=use local S)(psu)*/
(PID.TID 0000.0001)                 0.000000000000000E+00
(PID.TID 0000.0001)     ;
(PID.TID 0000.0001) convertFW2Salt = /* convert F.W. Flux to Salt Flux (-1=use local S)(psu)*/
(PID.TID 0000.0001)                 3.500000000000000E+01
(PID.TID 0000.0001)     ;
(PID.TID 0000.0001) use3Dsolver = /* use 3-D pressure solver on/off flag */
(PID.TID 0000.0001)                   F
(PID.TID 0000.0001)     ;
(PID.TID 0000.0001) nonHydrostatic =  /* Non-Hydrostatic on/off flag */
(PID.TID 0000.0001)                   F
(PID.TID 0000.0001)     ;
(PID.TID 0000.0001) nh_Am2 = /* Non-Hydrostatic terms scaling factor */
(PID.TID 0000.0001)                 1.000000000000000E+00
(PID.TID 0000.0001)     ;
(PID.TID 0000.0001) implicitNHPress = /* Non-Hyd Pressure implicit factor (0-1)*/
(PID.TID 0000.0001)                 1.000000000000000E+00
(PID.TID 0000.0001)     ;
(PID.TID 0000.0001) selectNHfreeSurf = /* Non-Hyd (free-)Surface option */
(PID.TID 0000.0001)                       0
(PID.TID 0000.0001)     ;
(PID.TID 0000.0001) quasiHydrostatic = /* Quasi-Hydrostatic on/off flag */
(PID.TID 0000.0001)                   F
(PID.TID 0000.0001)     ;
(PID.TID 0000.0001) calc_wVelocity = /* vertical velocity calculation on/off flag */
(PID.TID 0000.0001)                   T
(PID.TID 0000.0001)     ;
(PID.TID 0000.0001) momStepping =  /* Momentum equation on/off flag */
(PID.TID 0000.0001)                   T
(PID.TID 0000.0001)     ;
(PID.TID 0000.0001) vectorInvariantMomentum= /* Vector-Invariant Momentum on/off */
(PID.TID 0000.0001)                   F
(PID.TID 0000.0001)     ;
(PID.TID 0000.0001) momAdvection =  /* Momentum advection on/off flag */
(PID.TID 0000.0001)                   T
(PID.TID 0000.0001)     ;
(PID.TID 0000.0001) momViscosity =  /* Momentum viscosity on/off flag */
(PID.TID 0000.0001)                   T
(PID.TID 0000.0001)     ;
(PID.TID 0000.0001) momImplVertAdv= /* Momentum implicit vert. advection on/off*/
(PID.TID 0000.0001)                   F
(PID.TID 0000.0001)     ;
(PID.TID 0000.0001) implicitViscosity = /* Implicit viscosity on/off flag */
(PID.TID 0000.0001)                   F
(PID.TID 0000.0001)     ;
(PID.TID 0000.0001) metricTerms =  /* metric-Terms on/off flag */
(PID.TID 0000.0001)                   T
(PID.TID 0000.0001)     ;
(PID.TID 0000.0001) useNHMTerms = /* Non-Hydrostatic Metric-Terms on/off */
(PID.TID 0000.0001)                   F
(PID.TID 0000.0001)     ;
(PID.TID 0000.0001) selectCoriMap = /* Coriolis Map options (0,1,2,3)*/
(PID.TID 0000.0001)                       2
(PID.TID 0000.0001)     0= f-Plane ; 1= Beta-Plane ; 2= Spherical ; 3= read from file
(PID.TID 0000.0001)     ;
(PID.TID 0000.0001) use3dCoriolis = /* 3-D Coriolis on/off flag */
(PID.TID 0000.0001)                   F
(PID.TID 0000.0001)     ;
(PID.TID 0000.0001) useCoriolis =  /* Coriolis on/off flag */
(PID.TID 0000.0001)                   T
(PID.TID 0000.0001)     ;
(PID.TID 0000.0001) useCDscheme =  /* CD scheme on/off flag */
(PID.TID 0000.0001)                   T
(PID.TID 0000.0001)     ;
(PID.TID 0000.0001) useEnergyConservingCoriolis= /* Flx-Form Coriolis scheme flag */
(PID.TID 0000.0001)                   F
(PID.TID 0000.0001)     ;
(PID.TID 0000.0001) useJamartWetPoints= /* Coriolis WetPoints method flag */
(PID.TID 0000.0001)                   F
(PID.TID 0000.0001)     ;
(PID.TID 0000.0001) useJamartMomAdv= /* V.I Non-linear terms Jamart flag */
(PID.TID 0000.0001)                   F
(PID.TID 0000.0001)     ;
(PID.TID 0000.0001) useAbsVorticity= /* V.I Works with f+zeta in Coriolis */
(PID.TID 0000.0001)                   F
(PID.TID 0000.0001)     ;
(PID.TID 0000.0001) selectVortScheme= /* V.I Scheme selector for Vorticity-Term */
(PID.TID 0000.0001)               123456789
(PID.TID 0000.0001)    = 0 : enstrophy (Shallow-Water Eq.) conserving scheme by Sadourny, JAS 75
(PID.TID 0000.0001)    = 1 : same as 0 with modified hFac
(PID.TID 0000.0001)    = 2 : energy conserving scheme (used by Sadourny in JAS 75 paper)
(PID.TID 0000.0001)    = 3 : energy (general) and enstrophy (2D, nonDiv.) conserving scheme
(PID.TID 0000.0001)          from Sadourny (Burridge & Haseler, ECMWF Rep.4, 1977)
(PID.TID 0000.0001)     ;
(PID.TID 0000.0001) upwindVorticity= /* V.I Upwind bias vorticity flag */
(PID.TID 0000.0001)                   F
(PID.TID 0000.0001)     ;
(PID.TID 0000.0001) highOrderVorticity= /* V.I High order vort. advect. flag */
(PID.TID 0000.0001)                   F
(PID.TID 0000.0001)     ;
(PID.TID 0000.0001) upwindShear= /* V.I Upwind vertical Shear advection flag */
(PID.TID 0000.0001)                   F
(PID.TID 0000.0001)     ;
(PID.TID 0000.0001) selectKEscheme= /* V.I Kinetic Energy scheme selector */
(PID.TID 0000.0001)                       0
(PID.TID 0000.0001)     ;
(PID.TID 0000.0001) momForcing =  /* Momentum forcing on/off flag */
(PID.TID 0000.0001)                   T
(PID.TID 0000.0001)     ;
(PID.TID 0000.0001) momPressureForcing =  /* Momentum pressure term on/off flag */
(PID.TID 0000.0001)                   T
(PID.TID 0000.0001)     ;
(PID.TID 0000.0001) implicitIntGravWave= /* Implicit Internal Gravity Wave flag */
(PID.TID 0000.0001)                   F
(PID.TID 0000.0001)     ;
(PID.TID 0000.0001) staggerTimeStep =   /* Stagger time stepping on/off flag */
(PID.TID 0000.0001)                   F
(PID.TID 0000.0001)     ;
(PID.TID 0000.0001) multiDimAdvection =   /* enable/disable Multi-Dim Advection */
(PID.TID 0000.0001)                   T
(PID.TID 0000.0001)     ;
(PID.TID 0000.0001) useMultiDimAdvec =   /* Multi-Dim Advection is/is-not used */
(PID.TID 0000.0001)                   F
(PID.TID 0000.0001)     ;
(PID.TID 0000.0001) implicitDiffusion = /* Implicit Diffusion on/off flag */
(PID.TID 0000.0001)                   T
(PID.TID 0000.0001)     ;
(PID.TID 0000.0001) tempStepping =  /* Temperature equation on/off flag */
(PID.TID 0000.0001)                   T
(PID.TID 0000.0001)     ;
(PID.TID 0000.0001) tempAdvection=  /* Temperature advection on/off flag */
(PID.TID 0000.0001)                   T
(PID.TID 0000.0001)     ;
(PID.TID 0000.0001) tempImplVertAdv = /* Temp. implicit vert. advection on/off */
(PID.TID 0000.0001)                   F
(PID.TID 0000.0001)     ;
(PID.TID 0000.0001) tempForcing  =  /* Temperature forcing on/off flag */
(PID.TID 0000.0001)                   T
(PID.TID 0000.0001)     ;
(PID.TID 0000.0001) tempIsActiveTr = /* Temp. is a dynamically Active Tracer */
(PID.TID 0000.0001)                   T
(PID.TID 0000.0001)     ;
(PID.TID 0000.0001) saltStepping =  /* Salinity equation on/off flag */
(PID.TID 0000.0001)                   T
(PID.TID 0000.0001)     ;
(PID.TID 0000.0001) saltAdvection=  /* Salinity advection on/off flag */
(PID.TID 0000.0001)                   T
(PID.TID 0000.0001)     ;
(PID.TID 0000.0001) saltImplVertAdv = /* Sali. implicit vert. advection on/off */
(PID.TID 0000.0001)                   F
(PID.TID 0000.0001)     ;
(PID.TID 0000.0001) saltForcing  =  /* Salinity forcing on/off flag */
(PID.TID 0000.0001)                   T
(PID.TID 0000.0001)     ;
(PID.TID 0000.0001) saltIsActiveTr = /* Salt  is a dynamically Active Tracer */
(PID.TID 0000.0001)                   T
(PID.TID 0000.0001)     ;
(PID.TID 0000.0001)  readBinaryPrec = /* Precision used for reading binary files */
(PID.TID 0000.0001)                      32
(PID.TID 0000.0001)     ;
(PID.TID 0000.0001) writeBinaryPrec = /* Precision used for writing binary files */
(PID.TID 0000.0001)                      32
(PID.TID 0000.0001)     ;
(PID.TID 0000.0001)  globalFiles = /* write "global" (=not per tile) files */
(PID.TID 0000.0001)                   F
(PID.TID 0000.0001)     ;
(PID.TID 0000.0001)  useSingleCpuIO = /* only master MPI process does I/O */
(PID.TID 0000.0001)                   F
(PID.TID 0000.0001)     ;
(PID.TID 0000.0001) /* debLev[*]  : level of debug & auxiliary message printing */
(PID.TID 0000.0001) debLevZero =  0 ; /* level of disabled aux. msg printing */
(PID.TID 0000.0001)    debLevA =  1 ; /* level of minimum  aux. msg printing */
(PID.TID 0000.0001)    debLevB =  2 ; /* level of low aux. print (report read-file opening)*/
(PID.TID 0000.0001)    debLevC =  3 ; /* level of moderate debug prt (most pkgs debug msg) */
(PID.TID 0000.0001)    debLevD =  4 ; /* level of enhanced debug prt (add DEBUG_STATS prt) */
(PID.TID 0000.0001)    debLevE =  5 ; /* level of extensive debug printing */
(PID.TID 0000.0001) debugLevel =  /* select debug printing level */
(PID.TID 0000.0001)                       1
(PID.TID 0000.0001)     ;
(PID.TID 0000.0001) //
(PID.TID 0000.0001) // Elliptic solver(s) paramters ( PARM02 in namelist )
(PID.TID 0000.0001) //
(PID.TID 0000.0001) cg2dMaxIters =   /* Upper limit on 2d con. grad iterations  */
(PID.TID 0000.0001)                    1000
(PID.TID 0000.0001)     ;
(PID.TID 0000.0001) cg2dChkResFreq =   /* 2d con. grad convergence test frequency */
(PID.TID 0000.0001)                       1
(PID.TID 0000.0001)     ;
(PID.TID 0000.0001) cg2dTargetResidual =   /* 2d con. grad target residual  */
(PID.TID 0000.0001)                 1.000000000000000E-17
(PID.TID 0000.0001)     ;
(PID.TID 0000.0001) cg2dTargetResWunit =   /* CG2d target residual [W units] */
(PID.TID 0000.0001)                -1.000000000000000E+00
(PID.TID 0000.0001)     ;
(PID.TID 0000.0001) cg2dPreCondFreq =   /* Freq. for updating cg2d preconditioner */
(PID.TID 0000.0001)                       1
(PID.TID 0000.0001)     ;
(PID.TID 0000.0001) useSRCGSolver =  /* use single reduction CG solver(s) */
(PID.TID 0000.0001)                   F
(PID.TID 0000.0001)     ;
(PID.TID 0000.0001) printResidualFreq = /* Freq. for printing CG residual */
(PID.TID 0000.0001)                       0
(PID.TID 0000.0001)     ;
(PID.TID 0000.0001) //
(PID.TID 0000.0001) // Time stepping paramters ( PARM03 in namelist )
(PID.TID 0000.0001) //
(PID.TID 0000.0001) deltaTmom =   /* Momentum equation timestep ( s ) */
(PID.TID 0000.0001)                 2.400000000000000E+03
(PID.TID 0000.0001)     ;
(PID.TID 0000.0001) deltaTfreesurf = /* FreeSurface equation timestep ( s ) */
(PID.TID 0000.0001)                 2.400000000000000E+03
(PID.TID 0000.0001)     ;
(PID.TID 0000.0001) dTtracerLev =  /* Tracer equation timestep ( s ) */
(PID.TID 0000.0001)    20 @  8.640000000000000E+04              /* K =  1: 20 */
(PID.TID 0000.0001)     ;
(PID.TID 0000.0001) deltaTClock  =   /* Model clock timestep ( s ) */
(PID.TID 0000.0001)                 8.640000000000000E+04
(PID.TID 0000.0001)     ;
(PID.TID 0000.0001) cAdjFreq =   /* Convective adjustment interval ( s ) */
(PID.TID 0000.0001)                 8.640000000000000E+04
(PID.TID 0000.0001)     ;
(PID.TID 0000.0001) momForcingOutAB = /* =1: take Momentum Forcing out of Adams-Bash. stepping */
(PID.TID 0000.0001)                       0
(PID.TID 0000.0001)     ;
(PID.TID 0000.0001) tracForcingOutAB = /* =1: take T,S,pTr Forcing out of Adams-Bash. stepping */
(PID.TID 0000.0001)                       0
(PID.TID 0000.0001)     ;
(PID.TID 0000.0001) momDissip_In_AB = /* put Dissipation Tendency in Adams-Bash. stepping */
(PID.TID 0000.0001)                   T
(PID.TID 0000.0001)     ;
(PID.TID 0000.0001) doAB_onGtGs = /* apply AB on Tendencies (rather than on T,S)*/
(PID.TID 0000.0001)                   T
(PID.TID 0000.0001)     ;
(PID.TID 0000.0001) abEps =   /* Adams-Bashforth-2 stabilizing weight */
(PID.TID 0000.0001)                 1.000000000000000E-01
(PID.TID 0000.0001)     ;
(PID.TID 0000.0001) tauCD =   /* CD coupling time-scale ( s ) */
(PID.TID 0000.0001)                 3.214280000000000E+05
(PID.TID 0000.0001)     ;
(PID.TID 0000.0001) rCD =   /* Normalised CD coupling parameter */
(PID.TID 0000.0001)                 9.925333200592357E-01
(PID.TID 0000.0001)     ;
(PID.TID 0000.0001) epsAB_CD = /* AB-2 stabilizing weight for CD-scheme*/
(PID.TID 0000.0001)                 1.000000000000000E-01
(PID.TID 0000.0001)     ;
(PID.TID 0000.0001) pickupStrictlyMatch= /* stop if pickup do not strictly match */
(PID.TID 0000.0001)                   T
(PID.TID 0000.0001)     ;
(PID.TID 0000.0001) nIter0   =   /* Run starting timestep number */
(PID.TID 0000.0001)                       0
(PID.TID 0000.0001)     ;
(PID.TID 0000.0001) nTimeSteps = /* Number of timesteps */
(PID.TID 0000.0001)                       4
(PID.TID 0000.0001)     ;
(PID.TID 0000.0001) nEndIter =   /* Run ending timestep number */
(PID.TID 0000.0001)                       4
(PID.TID 0000.0001)     ;
(PID.TID 0000.0001) baseTime =   /* Model base time ( s ) */
(PID.TID 0000.0001)                 0.000000000000000E+00
(PID.TID 0000.0001)     ;
(PID.TID 0000.0001) startTime =  /* Run start time ( s ) */
(PID.TID 0000.0001)                 0.000000000000000E+00
(PID.TID 0000.0001)     ;
(PID.TID 0000.0001) endTime  =   /* Integration ending time ( s ) */
(PID.TID 0000.0001)                 3.456000000000000E+05
(PID.TID 0000.0001)     ;
(PID.TID 0000.0001) pChkPtFreq = /* Permanent restart/pickup file interval ( s ) */
(PID.TID 0000.0001)                 8.640000000000000E+07
(PID.TID 0000.0001)     ;
(PID.TID 0000.0001) chkPtFreq  = /* Rolling restart/pickup file interval ( s ) */
(PID.TID 0000.0001)                 8.640000000000000E+07
(PID.TID 0000.0001)     ;
(PID.TID 0000.0001) pickup_write_mdsio =   /* Model IO flag. */
(PID.TID 0000.0001)                   T
(PID.TID 0000.0001)     ;
(PID.TID 0000.0001) pickup_read_mdsio =   /* Model IO flag. */
(PID.TID 0000.0001)                   T
(PID.TID 0000.0001)     ;
(PID.TID 0000.0001) pickup_write_immed =   /* Model IO flag. */
(PID.TID 0000.0001)                   F
(PID.TID 0000.0001)     ;
(PID.TID 0000.0001) writePickupAtEnd =   /* Model IO flag. */
(PID.TID 0000.0001)                   T
(PID.TID 0000.0001)     ;
(PID.TID 0000.0001) dumpFreq =   /* Model state write out interval ( s ). */
(PID.TID 0000.0001)                 8.640000000000000E+04
(PID.TID 0000.0001)     ;
(PID.TID 0000.0001) dumpInitAndLast= /* write out Initial & Last iter. model state */
(PID.TID 0000.0001)                   T
(PID.TID 0000.0001)     ;
(PID.TID 0000.0001) snapshot_mdsio =   /* Model IO flag. */
(PID.TID 0000.0001)                   T
(PID.TID 0000.0001)     ;
(PID.TID 0000.0001) monitorFreq =   /* Monitor output interval ( s ). */
(PID.TID 0000.0001)                 4.320000000000000E+04
(PID.TID 0000.0001)     ;
(PID.TID 0000.0001) monitorSelect = /* select group of variables to monitor */
(PID.TID 0000.0001)                       3
(PID.TID 0000.0001)     ;
(PID.TID 0000.0001) monitor_stdio =   /* Model IO flag. */
(PID.TID 0000.0001)                   T
(PID.TID 0000.0001)     ;
(PID.TID 0000.0001) externForcingPeriod =   /* forcing period (s) */
(PID.TID 0000.0001)                 0.000000000000000E+00
(PID.TID 0000.0001)     ;
(PID.TID 0000.0001) externForcingCycle =   /* period of the cyle (s). */
(PID.TID 0000.0001)                 0.000000000000000E+00
(PID.TID 0000.0001)     ;
(PID.TID 0000.0001) tauThetaClimRelax =   /* relaxation time scale (s) */
(PID.TID 0000.0001)                 2.592000000000000E+06
(PID.TID 0000.0001)     ;
(PID.TID 0000.0001) tauSaltClimRelax =   /* relaxation time scale (s) */
(PID.TID 0000.0001)                 2.592000000000000E+06
(PID.TID 0000.0001)     ;
(PID.TID 0000.0001) latBandClimRelax =   /* max. Lat. where relaxation */
(PID.TID 0000.0001)                 1.800000000000000E+02
(PID.TID 0000.0001)     ;
(PID.TID 0000.0001) //
(PID.TID 0000.0001) // Gridding paramters ( PARM04 in namelist )
(PID.TID 0000.0001) //
(PID.TID 0000.0001) usingCartesianGrid = /* Cartesian coordinates flag ( True/False ) */
(PID.TID 0000.0001)                   F
(PID.TID 0000.0001)     ;
(PID.TID 0000.0001) usingCylindricalGrid = /* Cylindrical coordinates flag ( True/False ) */
(PID.TID 0000.0001)                   F
(PID.TID 0000.0001)     ;
(PID.TID 0000.0001) usingSphericalPolarGrid = /* Spherical coordinates flag ( True/False ) */
(PID.TID 0000.0001)                   T
(PID.TID 0000.0001)     ;
(PID.TID 0000.0001) usingCurvilinearGrid = /* Curvilinear coordinates flag ( True/False ) */
(PID.TID 0000.0001)                   F
(PID.TID 0000.0001)     ;
(PID.TID 0000.0001) selectSigmaCoord = /* Hybrid-Sigma Vert. Coordinate option */
(PID.TID 0000.0001)                       0
(PID.TID 0000.0001)     ;
(PID.TID 0000.0001) Ro_SeaLevel = /* r(1) ( units of r ==  m ) */
(PID.TID 0000.0001)                 0.000000000000000E+00
(PID.TID 0000.0001)     ;
(PID.TID 0000.0001) rSigmaBnd = /* r/sigma transition ( units of r ==  m ) */
(PID.TID 0000.0001)                 1.234567000000000E+05
(PID.TID 0000.0001)     ;
(PID.TID 0000.0001) rkSign =   /* index orientation relative to vertical coordinate */
(PID.TID 0000.0001)                -1.000000000000000E+00
(PID.TID 0000.0001)     ;
(PID.TID 0000.0001) gravitySign = /* gravity orientation relative to vertical coordinate */
(PID.TID 0000.0001)                -1.000000000000000E+00
(PID.TID 0000.0001)     ;
(PID.TID 0000.0001) mass2rUnit = /* convert mass per unit area [kg/m2] to r-units [m] */
(PID.TID 0000.0001)                 1.000200040008002E-03
(PID.TID 0000.0001)     ;
(PID.TID 0000.0001) rUnit2mass = /* convert r-units [m] to mass per unit area [kg/m2] */
(PID.TID 0000.0001)                 9.998000000000000E+02
(PID.TID 0000.0001)     ;
(PID.TID 0000.0001) drC =   /* C spacing ( units of r ) */
(PID.TID 0000.0001)                 2.500000000000000E+01,      /* K =  1 */
(PID.TID 0000.0001)                 5.000000000000000E+01,      /* K =  2 */
(PID.TID 0000.0001)                 5.250000000000000E+01,      /* K =  3 */
(PID.TID 0000.0001)                 5.750000000000000E+01,      /* K =  4 */
(PID.TID 0000.0001)                 6.250000000000000E+01,      /* K =  5 */
(PID.TID 0000.0001)                 6.750000000000000E+01,      /* K =  6 */
(PID.TID 0000.0001)                 7.500000000000000E+01,      /* K =  7 */
(PID.TID 0000.0001)                 8.750000000000000E+01,      /* K =  8 */
(PID.TID 0000.0001)                 1.075000000000000E+02,      /* K =  9 */
(PID.TID 0000.0001)                 1.375000000000000E+02,      /* K = 10 */
(PID.TID 0000.0001)                 1.775000000000000E+02,      /* K = 11 */
(PID.TID 0000.0001)                 2.300000000000000E+02,      /* K = 12 */
(PID.TID 0000.0001)                 2.900000000000000E+02,      /* K = 13 */
(PID.TID 0000.0001)                 3.600000000000000E+02,      /* K = 14 */
(PID.TID 0000.0001)                 4.400000000000000E+02,      /* K = 15 */
(PID.TID 0000.0001)                 5.250000000000000E+02,      /* K = 16 */
(PID.TID 0000.0001)                 6.125000000000000E+02,      /* K = 17 */
(PID.TID 0000.0001)                 6.900000000000000E+02,      /* K = 18 */
(PID.TID 0000.0001)                 7.500000000000000E+02,      /* K = 19 */
(PID.TID 0000.0001)                 7.950000000000000E+02       /* K = 20 */
(PID.TID 0000.0001)     ;
(PID.TID 0000.0001) drF =   /* W spacing ( units of r ) */
(PID.TID 0000.0001)     2 @  5.000000000000000E+01,             /* K =  1:  2 */
(PID.TID 0000.0001)                 5.500000000000000E+01,      /* K =  3 */
(PID.TID 0000.0001)                 6.000000000000000E+01,      /* K =  4 */
(PID.TID 0000.0001)                 6.500000000000000E+01,      /* K =  5 */
(PID.TID 0000.0001)                 7.000000000000000E+01,      /* K =  6 */
(PID.TID 0000.0001)                 8.000000000000000E+01,      /* K =  7 */
(PID.TID 0000.0001)                 9.500000000000000E+01,      /* K =  8 */
(PID.TID 0000.0001)                 1.200000000000000E+02,      /* K =  9 */
(PID.TID 0000.0001)                 1.550000000000000E+02,      /* K = 10 */
(PID.TID 0000.0001)                 2.000000000000000E+02,      /* K = 11 */
(PID.TID 0000.0001)                 2.600000000000000E+02,      /* K = 12 */
(PID.TID 0000.0001)                 3.200000000000000E+02,      /* K = 13 */
(PID.TID 0000.0001)                 4.000000000000000E+02,      /* K = 14 */
(PID.TID 0000.0001)                 4.800000000000000E+02,      /* K = 15 */
(PID.TID 0000.0001)                 5.700000000000000E+02,      /* K = 16 */
(PID.TID 0000.0001)                 6.550000000000000E+02,      /* K = 17 */
(PID.TID 0000.0001)                 7.250000000000000E+02,      /* K = 18 */
(PID.TID 0000.0001)                 7.750000000000000E+02,      /* K = 19 */
(PID.TID 0000.0001)                 8.150000000000000E+02       /* K = 20 */
(PID.TID 0000.0001)     ;
(PID.TID 0000.0001) delX = /* U spacing ( m - cartesian, degrees - spherical ) */
(PID.TID 0000.0001)    90 @  4.000000000000000E+00              /* I =  1: 90 */
(PID.TID 0000.0001)     ;
(PID.TID 0000.0001) delY = /* V spacing ( m - cartesian, degrees - spherical ) */
(PID.TID 0000.0001)    40 @  4.000000000000000E+00              /* J =  1: 40 */
(PID.TID 0000.0001)     ;
(PID.TID 0000.0001) xgOrigin = /* X-axis origin of West  edge (cartesian: m, lat-lon: deg.) */
(PID.TID 0000.0001)                 0.000000000000000E+00
(PID.TID 0000.0001)     ;
(PID.TID 0000.0001) ygOrigin = /* Y-axis origin of South edge (cartesian: m, lat-lon: deg.) */
(PID.TID 0000.0001)                -8.000000000000000E+01
(PID.TID 0000.0001)     ;
(PID.TID 0000.0001) rSphere =  /* Radius ( ignored - cartesian, m - spherical ) */
(PID.TID 0000.0001)                 6.370000000000000E+06
(PID.TID 0000.0001)     ;
(PID.TID 0000.0001) deepAtmosphere = /* Deep/Shallow Atmosphere flag (True/False) */
(PID.TID 0000.0001)                   F
(PID.TID 0000.0001)     ;
(PID.TID 0000.0001) xC =  /* xC(:,1,:,1) : P-point X coord ( deg. or m if cartesian) */
(PID.TID 0000.0001)                 2.000000000000000E+00,      /* I =  1 */
(PID.TID 0000.0001)                 6.000000000000000E+00,      /* I =  2 */
(PID.TID 0000.0001)                 1.000000000000000E+01,      /* I =  3 */
(PID.TID 0000.0001)      . . .
(PID.TID 0000.0001)                 8.200000000000000E+01,      /* I = 21 */
(PID.TID 0000.0001)                 8.600000000000000E+01,      /* I = 22 */
(PID.TID 0000.0001)                 9.000000000000000E+01,      /* I = 23 */
(PID.TID 0000.0001)                 9.400000000000000E+01,      /* I = 24 */
(PID.TID 0000.0001)                 9.800000000000000E+01,      /* I = 25 */
(PID.TID 0000.0001)                 1.020000000000000E+02,      /* I = 26 */
(PID.TID 0000.0001)      . . .
(PID.TID 0000.0001)                 1.700000000000000E+02,      /* I = 43 */
(PID.TID 0000.0001)                 1.740000000000000E+02,      /* I = 44 */
(PID.TID 0000.0001)                 1.780000000000000E+02,      /* I = 45 */
(PID.TID 0000.0001)                 1.820000000000000E+02,      /* I = 46 */
(PID.TID 0000.0001)                 1.860000000000000E+02,      /* I = 47 */
(PID.TID 0000.0001)                 1.900000000000000E+02,      /* I = 48 */
(PID.TID 0000.0001)      . . .
(PID.TID 0000.0001)                 2.580000000000000E+02,      /* I = 65 */
(PID.TID 0000.0001)                 2.620000000000000E+02,      /* I = 66 */
(PID.TID 0000.0001)                 2.660000000000000E+02,      /* I = 67 */
(PID.TID 0000.0001)                 2.700000000000000E+02,      /* I = 68 */
(PID.TID 0000.0001)                 2.740000000000000E+02,      /* I = 69 */
(PID.TID 0000.0001)                 2.780000000000000E+02,      /* I = 70 */
(PID.TID 0000.0001)      . . .
(PID.TID 0000.0001)                 3.500000000000000E+02,      /* I = 88 */
(PID.TID 0000.0001)                 3.540000000000000E+02,      /* I = 89 */
(PID.TID 0000.0001)                 3.580000000000000E+02       /* I = 90 */
(PID.TID 0000.0001)     ;
(PID.TID 0000.0001) yC =  /* yC(1,:,1,:) : P-point Y coord ( deg. or m if cartesian) */
(PID.TID 0000.0001)                -7.800000000000000E+01,      /* J =  1 */
(PID.TID 0000.0001)                -7.400000000000000E+01,      /* J =  2 */
(PID.TID 0000.0001)                -7.000000000000000E+01,      /* J =  3 */
(PID.TID 0000.0001)                -6.600000000000000E+01,      /* J =  4 */
(PID.TID 0000.0001)                -6.200000000000000E+01,      /* J =  5 */
(PID.TID 0000.0001)                -5.800000000000000E+01,      /* J =  6 */
(PID.TID 0000.0001)                -5.400000000000000E+01,      /* J =  7 */
(PID.TID 0000.0001)                -5.000000000000000E+01,      /* J =  8 */
(PID.TID 0000.0001)                -4.600000000000000E+01,      /* J =  9 */
(PID.TID 0000.0001)                -4.200000000000000E+01,      /* J = 10 */
(PID.TID 0000.0001)                -3.800000000000000E+01,      /* J = 11 */
(PID.TID 0000.0001)                -3.400000000000000E+01,      /* J = 12 */
(PID.TID 0000.0001)                -3.000000000000000E+01,      /* J = 13 */
(PID.TID 0000.0001)                -2.600000000000000E+01,      /* J = 14 */
(PID.TID 0000.0001)                -2.200000000000000E+01,      /* J = 15 */
(PID.TID 0000.0001)                -1.800000000000000E+01,      /* J = 16 */
(PID.TID 0000.0001)                -1.400000000000000E+01,      /* J = 17 */
(PID.TID 0000.0001)                -1.000000000000000E+01,      /* J = 18 */
(PID.TID 0000.0001)                -6.000000000000000E+00,      /* J = 19 */
(PID.TID 0000.0001)                -2.000000000000000E+00,      /* J = 20 */
(PID.TID 0000.0001)                 2.000000000000000E+00,      /* J = 21 */
(PID.TID 0000.0001)                 6.000000000000000E+00,      /* J = 22 */
(PID.TID 0000.0001)                 1.000000000000000E+01,      /* J = 23 */
(PID.TID 0000.0001)                 1.400000000000000E+01,      /* J = 24 */
(PID.TID 0000.0001)                 1.800000000000000E+01,      /* J = 25 */
(PID.TID 0000.0001)                 2.200000000000000E+01,      /* J = 26 */
(PID.TID 0000.0001)                 2.600000000000000E+01,      /* J = 27 */
(PID.TID 0000.0001)                 3.000000000000000E+01,      /* J = 28 */
(PID.TID 0000.0001)                 3.400000000000000E+01,      /* J = 29 */
(PID.TID 0000.0001)                 3.800000000000000E+01,      /* J = 30 */
(PID.TID 0000.0001)                 4.200000000000000E+01,      /* J = 31 */
(PID.TID 0000.0001)                 4.600000000000000E+01,      /* J = 32 */
(PID.TID 0000.0001)                 5.000000000000000E+01,      /* J = 33 */
(PID.TID 0000.0001)                 5.400000000000000E+01,      /* J = 34 */
(PID.TID 0000.0001)                 5.800000000000000E+01,      /* J = 35 */
(PID.TID 0000.0001)                 6.200000000000000E+01,      /* J = 36 */
(PID.TID 0000.0001)                 6.600000000000000E+01,      /* J = 37 */
(PID.TID 0000.0001)                 7.000000000000000E+01,      /* J = 38 */
(PID.TID 0000.0001)                 7.400000000000000E+01,      /* J = 39 */
(PID.TID 0000.0001)                 7.800000000000000E+01       /* J = 40 */
(PID.TID 0000.0001)     ;
(PID.TID 0000.0001) rcoord = /* P-point R coordinate (  units of r ) */
(PID.TID 0000.0001)                -2.500000000000000E+01,      /* K =  1 */
(PID.TID 0000.0001)                -7.500000000000000E+01,      /* K =  2 */
(PID.TID 0000.0001)                -1.275000000000000E+02,      /* K =  3 */
(PID.TID 0000.0001)                -1.850000000000000E+02,      /* K =  4 */
(PID.TID 0000.0001)                -2.475000000000000E+02,      /* K =  5 */
(PID.TID 0000.0001)                -3.150000000000000E+02,      /* K =  6 */
(PID.TID 0000.0001)                -3.900000000000000E+02,      /* K =  7 */
(PID.TID 0000.0001)                -4.775000000000000E+02,      /* K =  8 */
(PID.TID 0000.0001)                -5.850000000000000E+02,      /* K =  9 */
(PID.TID 0000.0001)                -7.225000000000000E+02,      /* K = 10 */
(PID.TID 0000.0001)                -9.000000000000000E+02,      /* K = 11 */
(PID.TID 0000.0001)                -1.130000000000000E+03,      /* K = 12 */
(PID.TID 0000.0001)                -1.420000000000000E+03,      /* K = 13 */
(PID.TID 0000.0001)                -1.780000000000000E+03,      /* K = 14 */
(PID.TID 0000.0001)                -2.220000000000000E+03,      /* K = 15 */
(PID.TID 0000.0001)                -2.745000000000000E+03,      /* K = 16 */
(PID.TID 0000.0001)                -3.357500000000000E+03,      /* K = 17 */
(PID.TID 0000.0001)                -4.047500000000000E+03,      /* K = 18 */
(PID.TID 0000.0001)                -4.797500000000000E+03,      /* K = 19 */
(PID.TID 0000.0001)                -5.592500000000000E+03       /* K = 20 */
(PID.TID 0000.0001)     ;
(PID.TID 0000.0001) rF =   /* W-Interf. R coordinate (  units of r ) */
(PID.TID 0000.0001)                 0.000000000000000E+00,      /* K =  1 */
(PID.TID 0000.0001)                -5.000000000000000E+01,      /* K =  2 */
(PID.TID 0000.0001)                -1.000000000000000E+02,      /* K =  3 */
(PID.TID 0000.0001)                -1.550000000000000E+02,      /* K =  4 */
(PID.TID 0000.0001)                -2.150000000000000E+02,      /* K =  5 */
(PID.TID 0000.0001)                -2.800000000000000E+02,      /* K =  6 */
(PID.TID 0000.0001)                -3.500000000000000E+02,      /* K =  7 */
(PID.TID 0000.0001)                -4.300000000000000E+02,      /* K =  8 */
(PID.TID 0000.0001)                -5.250000000000000E+02,      /* K =  9 */
(PID.TID 0000.0001)                -6.450000000000000E+02,      /* K = 10 */
(PID.TID 0000.0001)                -8.000000000000000E+02,      /* K = 11 */
(PID.TID 0000.0001)                -1.000000000000000E+03,      /* K = 12 */
(PID.TID 0000.0001)                -1.260000000000000E+03,      /* K = 13 */
(PID.TID 0000.0001)                -1.580000000000000E+03,      /* K = 14 */
(PID.TID 0000.0001)                -1.980000000000000E+03,      /* K = 15 */
(PID.TID 0000.0001)                -2.460000000000000E+03,      /* K = 16 */
(PID.TID 0000.0001)                -3.030000000000000E+03,      /* K = 17 */
(PID.TID 0000.0001)                -3.685000000000000E+03,      /* K = 18 */
(PID.TID 0000.0001)                -4.410000000000000E+03,      /* K = 19 */
(PID.TID 0000.0001)                -5.185000000000000E+03,      /* K = 20 */
(PID.TID 0000.0001)                -6.000000000000000E+03       /* K = 21 */
(PID.TID 0000.0001)     ;
(PID.TID 0000.0001) deepFacC = /* deep-model grid factor @ cell-Center (-) */
(PID.TID 0000.0001)    20 @  1.000000000000000E+00              /* K =  1: 20 */
(PID.TID 0000.0001)     ;
(PID.TID 0000.0001) deepFacF = /* deep-model grid factor @ W-Interface (-) */
(PID.TID 0000.0001)    21 @  1.000000000000000E+00              /* K =  1: 21 */
(PID.TID 0000.0001)     ;
(PID.TID 0000.0001) rVel2wUnit = /* convert units: rVel -> wSpeed (=1 if z-coord)*/
(PID.TID 0000.0001)    21 @  1.000000000000000E+00              /* K =  1: 21 */
(PID.TID 0000.0001)     ;
(PID.TID 0000.0001) wUnit2rVel = /* convert units: wSpeed -> rVel (=1 if z-coord)*/
(PID.TID 0000.0001)    21 @  1.000000000000000E+00              /* K =  1: 21 */
(PID.TID 0000.0001)     ;
(PID.TID 0000.0001) dBdrRef = /* Vertical grad. of reference buoyancy [(m/s/r)^2] */
(PID.TID 0000.0001)                 0.000000000000000E+00,      /* K =  1 */
(PID.TID 0000.0001)                 4.591080000000024E-05,      /* K =  2 */
(PID.TID 0000.0001)                 3.583920000000001E-05,      /* K =  3 */
(PID.TID 0000.0001)                 2.678556521739093E-05,      /* K =  4 */
(PID.TID 0000.0001)                 2.231971200000012E-05,      /* K =  5 */
(PID.TID 0000.0001)                 2.616000000000001E-05,      /* K =  6 */
(PID.TID 0000.0001)                 2.490432000000007E-05,      /* K =  7 */
(PID.TID 0000.0001)                 2.475483428571444E-05,      /* K =  8 */
(PID.TID 0000.0001)                 2.129910697674396E-05,      /* K =  9 */
(PID.TID 0000.0001)                 1.950584727272747E-05,      /* K = 10 */
(PID.TID 0000.0001)                 1.576232112676044E-05,      /* K = 11 */
(PID.TID 0000.0001)                 1.320511304347824E-05,      /* K = 12 */
(PID.TID 0000.0001)                 7.590910344827643E-06,      /* K = 13 */
(PID.TID 0000.0001)                 4.076599999999984E-06,      /* K = 14 */
(PID.TID 0000.0001)                 2.394531818181785E-06,      /* K = 15 */
(PID.TID 0000.0001)                 1.259417142857214E-06,      /* K = 16 */
(PID.TID 0000.0001)                 1.162785306122388E-06,      /* K = 17 */
(PID.TID 0000.0001)                 8.530434782608699E-07,      /* K = 18 */
(PID.TID 0000.0001)                 2.694480000000193E-07,      /* K = 19 */
(PID.TID 0000.0001)                 7.403773584905668E-08       /* K = 20 */
(PID.TID 0000.0001)     ;
(PID.TID 0000.0001) rotateGrid = /* use rotated grid ( True/False ) */
(PID.TID 0000.0001)                   F
(PID.TID 0000.0001)     ;
(PID.TID 0000.0001) phiEuler = /* Euler angle, rotation about original z-coordinate [rad] */
(PID.TID 0000.0001)                 0.000000000000000E+00
(PID.TID 0000.0001)     ;
(PID.TID 0000.0001) thetaEuler = /* Euler angle, rotation about new x-coordinate [rad] */
(PID.TID 0000.0001)                 0.000000000000000E+00
(PID.TID 0000.0001)     ;
(PID.TID 0000.0001) psiEuler = /* Euler angle, rotation about new z-coordinate [rad] */
(PID.TID 0000.0001)                 0.000000000000000E+00
(PID.TID 0000.0001)     ;
(PID.TID 0000.0001) dxF =  /* dxF(:,1,:,1) ( units: m ) */
(PID.TID 0000.0001)    90 @  9.246038586187513E+04              /* I =  1: 90 */
(PID.TID 0000.0001)     ;
(PID.TID 0000.0001) dxF =  /* dxF(1,:,1,:) ( units: m ) */
(PID.TID 0000.0001)                 9.246038586187513E+04,      /* J =  1 */
(PID.TID 0000.0001)                 1.225786591246834E+05,      /* J =  2 */
(PID.TID 0000.0001)                 1.520997414818001E+05,      /* J =  3 */
(PID.TID 0000.0001)                 1.808798091874300E+05,      /* J =  4 */
(PID.TID 0000.0001)                 2.087786486446736E+05,      /* J =  5 */
(PID.TID 0000.0001)                 2.356603395120765E+05,      /* J =  6 */
(PID.TID 0000.0001)                 2.613939168938713E+05,      /* J =  7 */
(PID.TID 0000.0001)                 2.858540093877838E+05,      /* J =  8 */
(PID.TID 0000.0001)                 3.089214498819034E+05,      /* J =  9 */
(PID.TID 0000.0001)                 3.304838561248741E+05,      /* J = 10 */
(PID.TID 0000.0001)                 3.504361782409254E+05,      /* J = 11 */
(PID.TID 0000.0001)                 3.686812105223082E+05,      /* J = 12 */
(PID.TID 0000.0001)                 3.851300650057323E+05,      /* J = 13 */
(PID.TID 0000.0001)                 3.997026045255871E+05,      /* J = 14 */
(PID.TID 0000.0001)                 4.123278331341585E+05,      /* J = 15 */
(PID.TID 0000.0001)                 4.229442419867491E+05,      /* J = 16 */
(PID.TID 0000.0001)                 4.315001090065870E+05,      /* J = 17 */
(PID.TID 0000.0001)                 4.379537508695838E+05,      /* J = 18 */
(PID.TID 0000.0001)                 4.422737260813012E+05,      /* J = 19 */
(PID.TID 0000.0001)     2 @  4.444389881567502E+05,             /* J = 20: 21 */
(PID.TID 0000.0001)                 4.422737260813012E+05,      /* J = 22 */
(PID.TID 0000.0001)                 4.379537508695838E+05,      /* J = 23 */
(PID.TID 0000.0001)                 4.315001090065870E+05,      /* J = 24 */
(PID.TID 0000.0001)                 4.229442419867491E+05,      /* J = 25 */
(PID.TID 0000.0001)                 4.123278331341585E+05,      /* J = 26 */
(PID.TID 0000.0001)                 3.997026045255871E+05,      /* J = 27 */
(PID.TID 0000.0001)                 3.851300650057323E+05,      /* J = 28 */
(PID.TID 0000.0001)                 3.686812105223082E+05,      /* J = 29 */
(PID.TID 0000.0001)                 3.504361782409254E+05,      /* J = 30 */
(PID.TID 0000.0001)                 3.304838561248741E+05,      /* J = 31 */
(PID.TID 0000.0001)                 3.089214498819034E+05,      /* J = 32 */
(PID.TID 0000.0001)                 2.858540093877838E+05,      /* J = 33 */
(PID.TID 0000.0001)                 2.613939168938713E+05,      /* J = 34 */
(PID.TID 0000.0001)                 2.356603395120765E+05,      /* J = 35 */
(PID.TID 0000.0001)                 2.087786486446736E+05,      /* J = 36 */
(PID.TID 0000.0001)                 1.808798091874300E+05,      /* J = 37 */
(PID.TID 0000.0001)                 1.520997414818001E+05,      /* J = 38 */
(PID.TID 0000.0001)                 1.225786591246834E+05,      /* J = 39 */
(PID.TID 0000.0001)                 9.246038586187513E+04       /* J = 40 */
(PID.TID 0000.0001)     ;
(PID.TID 0000.0001) dyF =  /* dyF(:,1,:,1) ( units: m ) */
(PID.TID 0000.0001)    90 @  4.447098934081552E+05              /* I =  1: 90 */
(PID.TID 0000.0001)     ;
(PID.TID 0000.0001) dyF =  /* dyF(1,:,1,:) ( units: m ) */
(PID.TID 0000.0001)    40 @  4.447098934081552E+05              /* J =  1: 40 */
(PID.TID 0000.0001)     ;
(PID.TID 0000.0001) dxG =  /* dxG(:,1,:,1) ( units: m ) */
(PID.TID 0000.0001)    90 @  7.722306258078101E+04              /* I =  1: 90 */
(PID.TID 0000.0001)     ;
(PID.TID 0000.0001) dxG =  /* dxG(1,:,1,:) ( units: m ) */
(PID.TID 0000.0001)                 7.722306258078101E+04,      /* J =  1 */
(PID.TID 0000.0001)                 1.075850604052271E+05,      /* J =  2 */
(PID.TID 0000.0001)                 1.374229146297914E+05,      /* J =  3 */
(PID.TID 0000.0001)                 1.665912582279823E+05,      /* J =  4 */
(PID.TID 0000.0001)                 1.949479859617814E+05,      /* J =  5 */
(PID.TID 0000.0001)                 2.223549467040777E+05,      /* J =  6 */
(PID.TID 0000.0001)                 2.486786164970726E+05,      /* J =  7 */
(PID.TID 0000.0001)                 2.737907490675810E+05,      /* J =  8 */
(PID.TID 0000.0001)                 2.975690006299821E+05,      /* J =  9 */
(PID.TID 0000.0001)                 3.198975259328452E+05,      /* J = 10 */
(PID.TID 0000.0001)                 3.406675426453503E+05,      /* J = 11 */
(PID.TID 0000.0001)                 3.597778613338690E+05,      /* J = 12 */
(PID.TID 0000.0001)                 3.771353784467131E+05,      /* J = 13 */
(PID.TID 0000.0001)                 3.926555299052806E+05,      /* J = 14 */
(PID.TID 0000.0001)                 4.062627030917454E+05,      /* J = 15 */
(PID.TID 0000.0001)                 4.178906052261313E+05,      /* J = 16 */
(PID.TID 0000.0001)                 4.274825863380723E+05,      /* J = 17 */
(PID.TID 0000.0001)                 4.349919152597734E+05,      /* J = 18 */
(PID.TID 0000.0001)                 4.403820072955634E+05,      /* J = 19 */
(PID.TID 0000.0001)                 4.436266024588540E+05,      /* J = 20 */
(PID.TID 0000.0001)                 4.447098934081552E+05,      /* J = 21 */
(PID.TID 0000.0001)                 4.436266024588540E+05,      /* J = 22 */
(PID.TID 0000.0001)                 4.403820072955634E+05,      /* J = 23 */
(PID.TID 0000.0001)                 4.349919152597734E+05,      /* J = 24 */
(PID.TID 0000.0001)                 4.274825863380723E+05,      /* J = 25 */
(PID.TID 0000.0001)                 4.178906052261313E+05,      /* J = 26 */
(PID.TID 0000.0001)                 4.062627030917454E+05,      /* J = 27 */
(PID.TID 0000.0001)                 3.926555299052806E+05,      /* J = 28 */
(PID.TID 0000.0001)                 3.771353784467131E+05,      /* J = 29 */
(PID.TID 0000.0001)                 3.597778613338690E+05,      /* J = 30 */
(PID.TID 0000.0001)                 3.406675426453503E+05,      /* J = 31 */
(PID.TID 0000.0001)                 3.198975259328452E+05,      /* J = 32 */
(PID.TID 0000.0001)                 2.975690006299821E+05,      /* J = 33 */
(PID.TID 0000.0001)                 2.737907490675810E+05,      /* J = 34 */
(PID.TID 0000.0001)                 2.486786164970726E+05,      /* J = 35 */
(PID.TID 0000.0001)                 2.223549467040777E+05,      /* J = 36 */
(PID.TID 0000.0001)                 1.949479859617814E+05,      /* J = 37 */
(PID.TID 0000.0001)                 1.665912582279823E+05,      /* J = 38 */
(PID.TID 0000.0001)                 1.374229146297914E+05,      /* J = 39 */
(PID.TID 0000.0001)                 1.075850604052271E+05       /* J = 40 */
(PID.TID 0000.0001)     ;
(PID.TID 0000.0001) dyG =  /* dyG(:,1,:,1) ( units: m ) */
(PID.TID 0000.0001)    90 @  4.447098934081552E+05              /* I =  1: 90 */
(PID.TID 0000.0001)     ;
(PID.TID 0000.0001) dyG =  /* dyG(1,:,1,:) ( units: m ) */
(PID.TID 0000.0001)    40 @  4.447098934081552E+05              /* J =  1: 40 */
(PID.TID 0000.0001)     ;
(PID.TID 0000.0001) dxC =  /* dxC(:,1,:,1) ( units: m ) */
(PID.TID 0000.0001)    90 @  9.246038586187513E+04              /* I =  1: 90 */
(PID.TID 0000.0001)     ;
(PID.TID 0000.0001) dxC =  /* dxC(1,:,1,:) ( units: m ) */
(PID.TID 0000.0001)                 9.246038586187513E+04,      /* J =  1 */
(PID.TID 0000.0001)                 1.225786591246834E+05,      /* J =  2 */
(PID.TID 0000.0001)                 1.520997414818001E+05,      /* J =  3 */
(PID.TID 0000.0001)                 1.808798091874300E+05,      /* J =  4 */
(PID.TID 0000.0001)                 2.087786486446736E+05,      /* J =  5 */
(PID.TID 0000.0001)                 2.356603395120765E+05,      /* J =  6 */
(PID.TID 0000.0001)                 2.613939168938713E+05,      /* J =  7 */
(PID.TID 0000.0001)                 2.858540093877838E+05,      /* J =  8 */
(PID.TID 0000.0001)                 3.089214498819034E+05,      /* J =  9 */
(PID.TID 0000.0001)                 3.304838561248741E+05,      /* J = 10 */
(PID.TID 0000.0001)                 3.504361782409254E+05,      /* J = 11 */
(PID.TID 0000.0001)                 3.686812105223082E+05,      /* J = 12 */
(PID.TID 0000.0001)                 3.851300650057323E+05,      /* J = 13 */
(PID.TID 0000.0001)                 3.997026045255871E+05,      /* J = 14 */
(PID.TID 0000.0001)                 4.123278331341585E+05,      /* J = 15 */
(PID.TID 0000.0001)                 4.229442419867491E+05,      /* J = 16 */
(PID.TID 0000.0001)                 4.315001090065870E+05,      /* J = 17 */
(PID.TID 0000.0001)                 4.379537508695838E+05,      /* J = 18 */
(PID.TID 0000.0001)                 4.422737260813012E+05,      /* J = 19 */
(PID.TID 0000.0001)     2 @  4.444389881567502E+05,             /* J = 20: 21 */
(PID.TID 0000.0001)                 4.422737260813012E+05,      /* J = 22 */
(PID.TID 0000.0001)                 4.379537508695838E+05,      /* J = 23 */
(PID.TID 0000.0001)                 4.315001090065870E+05,      /* J = 24 */
(PID.TID 0000.0001)                 4.229442419867491E+05,      /* J = 25 */
(PID.TID 0000.0001)                 4.123278331341585E+05,      /* J = 26 */
(PID.TID 0000.0001)                 3.997026045255871E+05,      /* J = 27 */
(PID.TID 0000.0001)                 3.851300650057323E+05,      /* J = 28 */
(PID.TID 0000.0001)                 3.686812105223082E+05,      /* J = 29 */
(PID.TID 0000.0001)                 3.504361782409254E+05,      /* J = 30 */
(PID.TID 0000.0001)                 3.304838561248741E+05,      /* J = 31 */
(PID.TID 0000.0001)                 3.089214498819034E+05,      /* J = 32 */
(PID.TID 0000.0001)                 2.858540093877838E+05,      /* J = 33 */
(PID.TID 0000.0001)                 2.613939168938713E+05,      /* J = 34 */
(PID.TID 0000.0001)                 2.356603395120765E+05,      /* J = 35 */
(PID.TID 0000.0001)                 2.087786486446736E+05,      /* J = 36 */
(PID.TID 0000.0001)                 1.808798091874300E+05,      /* J = 37 */
(PID.TID 0000.0001)                 1.520997414818001E+05,      /* J = 38 */
(PID.TID 0000.0001)                 1.225786591246834E+05,      /* J = 39 */
(PID.TID 0000.0001)                 9.246038586187513E+04       /* J = 40 */
(PID.TID 0000.0001)     ;
(PID.TID 0000.0001) dyC =  /* dyC(:,1,:,1) ( units: m ) */
(PID.TID 0000.0001)    90 @  4.447098934081552E+05              /* I =  1: 90 */
(PID.TID 0000.0001)     ;
(PID.TID 0000.0001) dyC =  /* dyC(1,:,1,:) ( units: m ) */
(PID.TID 0000.0001)    40 @  4.447098934081552E+05              /* J =  1: 40 */
(PID.TID 0000.0001)     ;
(PID.TID 0000.0001) dxV =  /* dxV(:,1,:,1) ( units: m ) */
(PID.TID 0000.0001)    90 @  7.722306258078101E+04              /* I =  1: 90 */
(PID.TID 0000.0001)     ;
(PID.TID 0000.0001) dxV =  /* dxV(1,:,1,:) ( units: m ) */
(PID.TID 0000.0001)                 7.722306258078101E+04,      /* J =  1 */
(PID.TID 0000.0001)                 1.075850604052271E+05,      /* J =  2 */
(PID.TID 0000.0001)                 1.374229146297914E+05,      /* J =  3 */
(PID.TID 0000.0001)                 1.665912582279823E+05,      /* J =  4 */
(PID.TID 0000.0001)                 1.949479859617814E+05,      /* J =  5 */
(PID.TID 0000.0001)                 2.223549467040777E+05,      /* J =  6 */
(PID.TID 0000.0001)                 2.486786164970726E+05,      /* J =  7 */
(PID.TID 0000.0001)                 2.737907490675810E+05,      /* J =  8 */
(PID.TID 0000.0001)                 2.975690006299821E+05,      /* J =  9 */
(PID.TID 0000.0001)                 3.198975259328452E+05,      /* J = 10 */
(PID.TID 0000.0001)                 3.406675426453503E+05,      /* J = 11 */
(PID.TID 0000.0001)                 3.597778613338690E+05,      /* J = 12 */
(PID.TID 0000.0001)                 3.771353784467131E+05,      /* J = 13 */
(PID.TID 0000.0001)                 3.926555299052806E+05,      /* J = 14 */
(PID.TID 0000.0001)                 4.062627030917454E+05,      /* J = 15 */
(PID.TID 0000.0001)                 4.178906052261313E+05,      /* J = 16 */
(PID.TID 0000.0001)                 4.274825863380723E+05,      /* J = 17 */
(PID.TID 0000.0001)                 4.349919152597734E+05,      /* J = 18 */
(PID.TID 0000.0001)                 4.403820072955634E+05,      /* J = 19 */
(PID.TID 0000.0001)                 4.436266024588540E+05,      /* J = 20 */
(PID.TID 0000.0001)                 4.447098934081552E+05,      /* J = 21 */
(PID.TID 0000.0001)                 4.436266024588540E+05,      /* J = 22 */
(PID.TID 0000.0001)                 4.403820072955634E+05,      /* J = 23 */
(PID.TID 0000.0001)                 4.349919152597734E+05,      /* J = 24 */
(PID.TID 0000.0001)                 4.274825863380723E+05,      /* J = 25 */
(PID.TID 0000.0001)                 4.178906052261313E+05,      /* J = 26 */
(PID.TID 0000.0001)                 4.062627030917454E+05,      /* J = 27 */
(PID.TID 0000.0001)                 3.926555299052806E+05,      /* J = 28 */
(PID.TID 0000.0001)                 3.771353784467131E+05,      /* J = 29 */
(PID.TID 0000.0001)                 3.597778613338690E+05,      /* J = 30 */
(PID.TID 0000.0001)                 3.406675426453503E+05,      /* J = 31 */
(PID.TID 0000.0001)                 3.198975259328452E+05,      /* J = 32 */
(PID.TID 0000.0001)                 2.975690006299821E+05,      /* J = 33 */
(PID.TID 0000.0001)                 2.737907490675810E+05,      /* J = 34 */
(PID.TID 0000.0001)                 2.486786164970726E+05,      /* J = 35 */
(PID.TID 0000.0001)                 2.223549467040777E+05,      /* J = 36 */
(PID.TID 0000.0001)                 1.949479859617814E+05,      /* J = 37 */
(PID.TID 0000.0001)                 1.665912582279823E+05,      /* J = 38 */
(PID.TID 0000.0001)                 1.374229146297914E+05,      /* J = 39 */
(PID.TID 0000.0001)                 1.075850604052271E+05       /* J = 40 */
(PID.TID 0000.0001)     ;
(PID.TID 0000.0001) dyU =  /* dyU(:,1,:,1) ( units: m ) */
(PID.TID 0000.0001)    90 @  4.447098934081552E+05              /* I =  1: 90 */
(PID.TID 0000.0001)     ;
(PID.TID 0000.0001) dyU =  /* dyU(1,:,1,:) ( units: m ) */
(PID.TID 0000.0001)    40 @  4.447098934081552E+05              /* J =  1: 40 */
(PID.TID 0000.0001)     ;
(PID.TID 0000.0001) rA  =  /* rA (:,1,:,1) ( units: m^2 ) */
(PID.TID 0000.0001)    90 @  4.110969866729047E+10              /* I =  1: 90 */
(PID.TID 0000.0001)     ;
(PID.TID 0000.0001) rA  =  /* rA (1,:,1,:) ( units: m^2 ) */
(PID.TID 0000.0001)                 4.110969866729047E+10,      /* J =  1 */
(PID.TID 0000.0001)                 5.450087291636665E+10,      /* J =  2 */
(PID.TID 0000.0001)                 6.762652439100235E+10,      /* J =  3 */
(PID.TID 0000.0001)                 8.042270623659998E+10,      /* J =  4 */
(PID.TID 0000.0001)                 9.282707674147523E+10,      /* J =  5 */
(PID.TID 0000.0001)                 1.047792030594103E+11,      /* J =  6 */
(PID.TID 0000.0001)                 1.162208556324093E+11,      /* J =  7 */
(PID.TID 0000.0001)                 1.270962918792468E+11,      /* J =  8 */
(PID.TID 0000.0001)                 1.373525277677229E+11,      /* J =  9 */
(PID.TID 0000.0001)                 1.469395959475426E+11,      /* J = 10 */
(PID.TID 0000.0001)                 1.558107891862220E+11,      /* J = 11 */
(PID.TID 0000.0001)                 1.639228879220326E+11,      /* J = 12 */
(PID.TID 0000.0001)                 1.712363708253573E+11,      /* J = 13 */
(PID.TID 0000.0001)                 1.777156073426415E+11,      /* J = 14 */
(PID.TID 0000.0001)                 1.833290312848623E+11,      /* J = 15 */
(PID.TID 0000.0001)                 1.880492946148330E+11,      /* J = 16 */
(PID.TID 0000.0001)                 1.918534006840893E+11,      /* J = 17 */
(PID.TID 0000.0001)                 1.947228162702492E+11,      /* J = 18 */
(PID.TID 0000.0001)                 1.966435618690094E+11,      /* J = 19 */
(PID.TID 0000.0001)     2 @  1.976062798008856E+11,             /* J = 20: 21 */
(PID.TID 0000.0001)                 1.966435618690094E+11,      /* J = 22 */
(PID.TID 0000.0001)                 1.947228162702492E+11,      /* J = 23 */
(PID.TID 0000.0001)                 1.918534006840893E+11,      /* J = 24 */
(PID.TID 0000.0001)                 1.880492946148330E+11,      /* J = 25 */
(PID.TID 0000.0001)                 1.833290312848623E+11,      /* J = 26 */
(PID.TID 0000.0001)                 1.777156073426415E+11,      /* J = 27 */
(PID.TID 0000.0001)                 1.712363708253573E+11,      /* J = 28 */
(PID.TID 0000.0001)                 1.639228879220326E+11,      /* J = 29 */
(PID.TID 0000.0001)                 1.558107891862220E+11,      /* J = 30 */
(PID.TID 0000.0001)                 1.469395959475426E+11,      /* J = 31 */
(PID.TID 0000.0001)                 1.373525277677229E+11,      /* J = 32 */
(PID.TID 0000.0001)                 1.270962918792468E+11,      /* J = 33 */
(PID.TID 0000.0001)                 1.162208556324093E+11,      /* J = 34 */
(PID.TID 0000.0001)                 1.047792030594103E+11,      /* J = 35 */
(PID.TID 0000.0001)                 9.282707674147523E+10,      /* J = 36 */
(PID.TID 0000.0001)                 8.042270623659998E+10,      /* J = 37 */
(PID.TID 0000.0001)                 6.762652439100235E+10,      /* J = 38 */
(PID.TID 0000.0001)                 5.450087291636665E+10,      /* J = 39 */
(PID.TID 0000.0001)                 4.110969866729047E+10       /* J = 40 */
(PID.TID 0000.0001)     ;
(PID.TID 0000.0001) rAw =  /* rAw(:,1,:,1) ( units: m^2 ) */
(PID.TID 0000.0001)    90 @  4.110969866729047E+10              /* I =  1: 90 */
(PID.TID 0000.0001)     ;
(PID.TID 0000.0001) rAw =  /* rAw(1,:,1,:) ( units: m^2 ) */
(PID.TID 0000.0001)                 4.110969866729047E+10,      /* J =  1 */
(PID.TID 0000.0001)                 5.450087291636665E+10,      /* J =  2 */
(PID.TID 0000.0001)                 6.762652439100235E+10,      /* J =  3 */
(PID.TID 0000.0001)                 8.042270623659998E+10,      /* J =  4 */
(PID.TID 0000.0001)                 9.282707674147523E+10,      /* J =  5 */
(PID.TID 0000.0001)                 1.047792030594103E+11,      /* J =  6 */
(PID.TID 0000.0001)                 1.162208556324093E+11,      /* J =  7 */
(PID.TID 0000.0001)                 1.270962918792468E+11,      /* J =  8 */
(PID.TID 0000.0001)                 1.373525277677229E+11,      /* J =  9 */
(PID.TID 0000.0001)                 1.469395959475426E+11,      /* J = 10 */
(PID.TID 0000.0001)                 1.558107891862220E+11,      /* J = 11 */
(PID.TID 0000.0001)                 1.639228879220326E+11,      /* J = 12 */
(PID.TID 0000.0001)                 1.712363708253573E+11,      /* J = 13 */
(PID.TID 0000.0001)                 1.777156073426415E+11,      /* J = 14 */
(PID.TID 0000.0001)                 1.833290312848623E+11,      /* J = 15 */
(PID.TID 0000.0001)                 1.880492946148330E+11,      /* J = 16 */
(PID.TID 0000.0001)                 1.918534006840893E+11,      /* J = 17 */
(PID.TID 0000.0001)                 1.947228162702492E+11,      /* J = 18 */
(PID.TID 0000.0001)                 1.966435618690094E+11,      /* J = 19 */
(PID.TID 0000.0001)     2 @  1.976062798008856E+11,             /* J = 20: 21 */
(PID.TID 0000.0001)                 1.966435618690094E+11,      /* J = 22 */
(PID.TID 0000.0001)                 1.947228162702492E+11,      /* J = 23 */
(PID.TID 0000.0001)                 1.918534006840893E+11,      /* J = 24 */
(PID.TID 0000.0001)                 1.880492946148330E+11,      /* J = 25 */
(PID.TID 0000.0001)                 1.833290312848623E+11,      /* J = 26 */
(PID.TID 0000.0001)                 1.777156073426415E+11,      /* J = 27 */
(PID.TID 0000.0001)                 1.712363708253573E+11,      /* J = 28 */
(PID.TID 0000.0001)                 1.639228879220326E+11,      /* J = 29 */
(PID.TID 0000.0001)                 1.558107891862220E+11,      /* J = 30 */
(PID.TID 0000.0001)                 1.469395959475426E+11,      /* J = 31 */
(PID.TID 0000.0001)                 1.373525277677229E+11,      /* J = 32 */
(PID.TID 0000.0001)                 1.270962918792468E+11,      /* J = 33 */
(PID.TID 0000.0001)                 1.162208556324093E+11,      /* J = 34 */
(PID.TID 0000.0001)                 1.047792030594103E+11,      /* J = 35 */
(PID.TID 0000.0001)                 9.282707674147523E+10,      /* J = 36 */
(PID.TID 0000.0001)                 8.042270623659998E+10,      /* J = 37 */
(PID.TID 0000.0001)                 6.762652439100235E+10,      /* J = 38 */
(PID.TID 0000.0001)                 5.450087291636665E+10,      /* J = 39 */
(PID.TID 0000.0001)                 4.110969866729047E+10       /* J = 40 */
(PID.TID 0000.0001)     ;
(PID.TID 0000.0001) rAs =  /* rAs(:,1,:,1) ( units: m^2 ) */
(PID.TID 0000.0001)    90 @  3.433488626798250E+10              /* I =  1: 90 */
(PID.TID 0000.0001)     ;
(PID.TID 0000.0001) rAs =  /* rAs(1,:,1,:) ( units: m^2 ) */
(PID.TID 0000.0001)                 3.433488626798250E+10,      /* J =  1 */
(PID.TID 0000.0001)                 4.783442523123625E+10,      /* J =  2 */
(PID.TID 0000.0001)                 6.110091968306414E+10,      /* J =  3 */
(PID.TID 0000.0001)                 7.406973659603818E+10,      /* J =  4 */
(PID.TID 0000.0001)                 8.667769319778079E+10,      /* J =  5 */
(PID.TID 0000.0001)                 9.886336479107463E+10,      /* J =  6 */
(PID.TID 0000.0001)                 1.105673840088173E+11,      /* J =  7 */
(PID.TID 0000.0001)                 1.217327300458638E+11,      /* J =  8 */
(PID.TID 0000.0001)                 1.323050064586578E+11,      /* J =  9 */
(PID.TID 0000.0001)                 1.422327061792377E+11,      /* J = 10 */
(PID.TID 0000.0001)                 1.514674624524945E+11,      /* J = 11 */
(PID.TID 0000.0001)                 1.599642844741385E+11,      /* J = 12 */
(PID.TID 0000.0001)                 1.676817765813788E+11,      /* J = 13 */
(PID.TID 0000.0001)                 1.745823399284268E+11,      /* J = 14 */
(PID.TID 0000.0001)                 1.806323556642996E+11,      /* J = 15 */
(PID.TID 0000.0001)                 1.858023487204767E+11,      /* J = 16 */
(PID.TID 0000.0001)                 1.900671314104743E+11,      /* J = 17 */
(PID.TID 0000.0001)                 1.934059261417216E+11,      /* J = 18 */
(PID.TID 0000.0001)                 1.958024666419019E+11,      /* J = 19 */
(PID.TID 0000.0001)                 1.972450772065981E+11,      /* J = 20 */
(PID.TID 0000.0001)                 1.977267295821495E+11,      /* J = 21 */
(PID.TID 0000.0001)                 1.972450772065981E+11,      /* J = 22 */
(PID.TID 0000.0001)                 1.958024666419019E+11,      /* J = 23 */
(PID.TID 0000.0001)                 1.934059261417216E+11,      /* J = 24 */
(PID.TID 0000.0001)                 1.900671314104743E+11,      /* J = 25 */
(PID.TID 0000.0001)                 1.858023487204767E+11,      /* J = 26 */
(PID.TID 0000.0001)                 1.806323556642996E+11,      /* J = 27 */
(PID.TID 0000.0001)                 1.745823399284268E+11,      /* J = 28 */
(PID.TID 0000.0001)                 1.676817765813788E+11,      /* J = 29 */
(PID.TID 0000.0001)                 1.599642844741385E+11,      /* J = 30 */
(PID.TID 0000.0001)                 1.514674624524945E+11,      /* J = 31 */
(PID.TID 0000.0001)                 1.422327061792377E+11,      /* J = 32 */
(PID.TID 0000.0001)                 1.323050064586578E+11,      /* J = 33 */
(PID.TID 0000.0001)                 1.217327300458638E+11,      /* J = 34 */
(PID.TID 0000.0001)                 1.105673840088173E+11,      /* J = 35 */
(PID.TID 0000.0001)                 9.886336479107463E+10,      /* J = 36 */
(PID.TID 0000.0001)                 8.667769319778079E+10,      /* J = 37 */
(PID.TID 0000.0001)                 7.406973659603818E+10,      /* J = 38 */
(PID.TID 0000.0001)                 6.110091968306414E+10,      /* J = 39 */
(PID.TID 0000.0001)                 4.783442523123625E+10       /* J = 40 */
(PID.TID 0000.0001)     ;
(PID.TID 0000.0001) globalArea = /* Integrated horizontal Area (m^2) */
(PID.TID 0000.0001)                 3.335490855875281E+14
(PID.TID 0000.0001)     ;
(PID.TID 0000.0001) // =======================================================
(PID.TID 0000.0001) // End of Model config. summary
(PID.TID 0000.0001) // =======================================================
(PID.TID 0000.0001) 
(PID.TID 0000.0001) == Packages configuration : Check & print summary ==
(PID.TID 0000.0001) 
(PID.TID 0000.0001) GMREDI_CHECK: #define GMREDI
(PID.TID 0000.0001) GM_AdvForm =     /* if FALSE => use SkewFlux Form */
(PID.TID 0000.0001)                   T
(PID.TID 0000.0001)     ;
(PID.TID 0000.0001) GM_InMomAsStress = /* if TRUE => apply as Eddy Stress */
(PID.TID 0000.0001)                   F
(PID.TID 0000.0001)     ;
(PID.TID 0000.0001) GM_AdvSeparate = /* Calc Bolus & Euler Adv. separately */
(PID.TID 0000.0001)                   F
(PID.TID 0000.0001)     ;
(PID.TID 0000.0001) GM_ExtraDiag =   /* Tensor Extra Diag (line 1&2) non 0 */
(PID.TID 0000.0001)                   T
(PID.TID 0000.0001)     ;
(PID.TID 0000.0001) GM_isopycK =    /* Background Isopyc. Diffusivity [m^2/s] */
(PID.TID 0000.0001)                 1.100000000000000E+03
(PID.TID 0000.0001)     ;
(PID.TID 0000.0001) GM_skewflx*K =  /* Background GM_SkewFlx Diffusivity [m^2/s] */
(PID.TID 0000.0001)                 0.000000000000000E+00
(PID.TID 0000.0001)     ;
(PID.TID 0000.0001) GM_advec*K =    /* Backg. GM-Advec(=Bolus) Diffusivity [m^2/s]*/
(PID.TID 0000.0001)                 9.000000000000000E+02
(PID.TID 0000.0001)     ;
(PID.TID 0000.0001) GM_Kmin_horiz = /* Minimum Horizontal Diffusivity [m^2/s] */
(PID.TID 0000.0001)                 5.000000000000000E+01
(PID.TID 0000.0001)     ;
(PID.TID 0000.0001) GM_Visbeck_alpha = /* Visbeck alpha coeff. [-] */
(PID.TID 0000.0001)                 0.000000000000000E+00
(PID.TID 0000.0001)     ;
(PID.TID 0000.0001) GM_Small_Number =  /* epsilon used in slope calc */
(PID.TID 0000.0001)                 9.999999999999999E-21
(PID.TID 0000.0001)     ;
(PID.TID 0000.0001) GM_slopeSqCutoff = /* Slope^2 cut-off value */
(PID.TID 0000.0001)                 1.000000000000000E+08
(PID.TID 0000.0001)     ;
(PID.TID 0000.0001) GM_taper_scheme =  /* Type of Tapering/Clipping scheme */
(PID.TID 0000.0001)               'dm95                                    '
(PID.TID 0000.0001)     ;
(PID.TID 0000.0001) GM_maxSlope =  /* Maximum Slope (Tapering/Clipping) */
(PID.TID 0000.0001)                 1.000000000000000E-02
(PID.TID 0000.0001)     ;
(PID.TID 0000.0001) GM_facTrL2dz = /* Minimum Trans.Layer Thick. (factor of dz) */
(PID.TID 0000.0001)                 1.000000000000000E+00
(PID.TID 0000.0001)     ;
(PID.TID 0000.0001) GM_facTrL2ML = /* Max.Trans.Layer Thick. (factor of MxL Depth)*/
(PID.TID 0000.0001)                 5.000000000000000E+00
(PID.TID 0000.0001)     ;
(PID.TID 0000.0001) GM_maxTransLay = /* Maximum Transition Layer Thickness [m] */
(PID.TID 0000.0001)                 5.000000000000000E+02
(PID.TID 0000.0001)     ;
(PID.TID 0000.0001) GM_UseBVP = /* if TRUE => use bvp a la Ferrari et al. (2010) */
(PID.TID 0000.0001)                   F
(PID.TID 0000.0001)     ;
(PID.TID 0000.0001) GM_BVP_ModeNumber = /* Vertical mode number for BVP wave speed */
(PID.TID 0000.0001)                       1
(PID.TID 0000.0001)     ;
(PID.TID 0000.0001) GM_BVP_cMin = /* Minimum wave speed for BVP [m/s] */
(PID.TID 0000.0001)                 1.000000000000000E-01
(PID.TID 0000.0001)     ;
(PID.TID 0000.0001) GM_useSubMeso = /* if TRUE => use Sub-Meso param. (B.Fox-Kemper) */
(PID.TID 0000.0001)                   F
(PID.TID 0000.0001)     ;
(PID.TID 0000.0001) subMeso_Ceff = /* efficiency coeff. of Mixed-Layer Eddies [-] */
(PID.TID 0000.0001)                 7.000000000000001E-02
(PID.TID 0000.0001)     ;
(PID.TID 0000.0001) subMeso_invTau = /* inverse of Sub-Meso mixing time-scale [/s] */
(PID.TID 0000.0001)                 2.000000000000000E-06
(PID.TID 0000.0001)     ;
(PID.TID 0000.0001) subMeso_LfMin = /* minimum length-scale "Lf" [m] */
(PID.TID 0000.0001)                 1.000000000000000E+03
(PID.TID 0000.0001)     ;
(PID.TID 0000.0001) subMeso_Lmax = /* maximum grid-scale length [m] */
(PID.TID 0000.0001)                 1.100000000000000E+05
(PID.TID 0000.0001)     ;
(PID.TID 0000.0001) CTRL_CHECK: ctrl package
(PID.TID 0000.0001) COST_CHECK: cost package
(PID.TID 0000.0001) GRDCHK_CHECK: grdchk package
(PID.TID 0000.0001) GAD_CHECK: #define ALLOW_GENERIC_ADVDIFF
(PID.TID 0000.0001) // =======================================================
(PID.TID 0000.0001) // CONFIG_CHECK : Normal End
(PID.TID 0000.0001) // =======================================================
(PID.TID 0000.0001) 
(PID.TID 0000.0001) INI_CG2D: CG2D normalisation factor =  8.8319877372200804E-05
(PID.TID 0000.0001) 
(PID.TID 0000.0001) Start initial hydrostatic pressure computation
(PID.TID 0000.0001) Pressure is predetermined for buoyancyRelation OCEANIC
(PID.TID 0000.0001) 
(PID.TID 0000.0001) // =======================================================
(PID.TID 0000.0001) // Begin MONITOR dynamic field statistics
(PID.TID 0000.0001) // =======================================================
(PID.TID 0000.0001) %MON time_tsnumber                =                     0
(PID.TID 0000.0001) %MON time_secondsf                =   0.0000000000000E+00
(PID.TID 0000.0001) %MON dynstat_eta_max              =   0.0000000000000E+00
(PID.TID 0000.0001) %MON dynstat_eta_min              =   0.0000000000000E+00
(PID.TID 0000.0001) %MON dynstat_eta_mean             =   0.0000000000000E+00
(PID.TID 0000.0001) %MON dynstat_eta_sd               =   0.0000000000000E+00
(PID.TID 0000.0001) %MON dynstat_eta_del2             =   0.0000000000000E+00
(PID.TID 0000.0001) %MON dynstat_uvel_max             =   0.0000000000000E+00
(PID.TID 0000.0001) %MON dynstat_uvel_min             =   0.0000000000000E+00
(PID.TID 0000.0001) %MON dynstat_uvel_mean            =   0.0000000000000E+00
(PID.TID 0000.0001) %MON dynstat_uvel_sd              =   0.0000000000000E+00
(PID.TID 0000.0001) %MON dynstat_uvel_del2            =   0.0000000000000E+00
(PID.TID 0000.0001) %MON dynstat_vvel_max             =   0.0000000000000E+00
(PID.TID 0000.0001) %MON dynstat_vvel_min             =   0.0000000000000E+00
(PID.TID 0000.0001) %MON dynstat_vvel_mean            =   0.0000000000000E+00
(PID.TID 0000.0001) %MON dynstat_vvel_sd              =   0.0000000000000E+00
(PID.TID 0000.0001) %MON dynstat_vvel_del2            =   0.0000000000000E+00
(PID.TID 0000.0001) %MON dynstat_wvel_max             =   0.0000000000000E+00
(PID.TID 0000.0001) %MON dynstat_wvel_min             =   0.0000000000000E+00
(PID.TID 0000.0001) %MON dynstat_wvel_mean            =   0.0000000000000E+00
(PID.TID 0000.0001) %MON dynstat_wvel_sd              =   0.0000000000000E+00
(PID.TID 0000.0001) %MON dynstat_wvel_del2            =   0.0000000000000E+00
(PID.TID 0000.0001) %MON dynstat_theta_max            =   2.9329580307007E+01
(PID.TID 0000.0001) %MON dynstat_theta_min            =  -1.8496928215027E+00
(PID.TID 0000.0001) %MON dynstat_theta_mean           =   3.4434668483202E+00
(PID.TID 0000.0001) %MON dynstat_theta_sd             =   4.2513626348502E+00
(PID.TID 0000.0001) %MON dynstat_theta_del2           =   5.1755281830340E-03
(PID.TID 0000.0001) %MON dynstat_salt_max             =   3.7439460754395E+01
(PID.TID 0000.0001) %MON dynstat_salt_min             =   3.1028352737427E+01
(PID.TID 0000.0001) %MON dynstat_salt_mean            =   3.4718545511620E+01
(PID.TID 0000.0001) %MON dynstat_salt_sd              =   2.8229416934120E-01
(PID.TID 0000.0001) %MON dynstat_salt_del2            =   8.2249504761060E-04
(PID.TID 0000.0001) %MON forcing_qnet_max             =   0.0000000000000E+00
(PID.TID 0000.0001) %MON forcing_qnet_min             =   0.0000000000000E+00
(PID.TID 0000.0001) %MON forcing_qnet_mean            =   0.0000000000000E+00
(PID.TID 0000.0001) %MON forcing_qnet_sd              =   0.0000000000000E+00
(PID.TID 0000.0001) %MON forcing_qnet_del2            =   0.0000000000000E+00
(PID.TID 0000.0001) %MON forcing_qsw_max              =   0.0000000000000E+00
(PID.TID 0000.0001) %MON forcing_qsw_min              =   0.0000000000000E+00
(PID.TID 0000.0001) %MON forcing_qsw_mean             =   0.0000000000000E+00
(PID.TID 0000.0001) %MON forcing_qsw_sd               =   0.0000000000000E+00
(PID.TID 0000.0001) %MON forcing_qsw_del2             =   0.0000000000000E+00
(PID.TID 0000.0001) %MON forcing_empmr_max            =   0.0000000000000E+00
(PID.TID 0000.0001) %MON forcing_empmr_min            =   0.0000000000000E+00
(PID.TID 0000.0001) %MON forcing_empmr_mean           =   0.0000000000000E+00
(PID.TID 0000.0001) %MON forcing_empmr_sd             =   0.0000000000000E+00
(PID.TID 0000.0001) %MON forcing_empmr_del2           =   0.0000000000000E+00
(PID.TID 0000.0001) %MON forcing_fu_max               =   1.6004334390163E-01
(PID.TID 0000.0001) %MON forcing_fu_min               =  -1.0329221189022E-01
(PID.TID 0000.0001) %MON forcing_fu_mean              =   4.1280488583042E-03
(PID.TID 0000.0001) %MON forcing_fu_sd                =   5.5800359441598E-02
(PID.TID 0000.0001) %MON forcing_fu_del2              =   3.2370368543277E-04
(PID.TID 0000.0001) %MON forcing_fv_max               =   8.4633164107800E-02
(PID.TID 0000.0001) %MON forcing_fv_min               =  -7.0490099489689E-02
(PID.TID 0000.0001) %MON forcing_fv_mean              =   2.8803575798275E-03
(PID.TID 0000.0001) %MON forcing_fv_sd                =   2.2193297771215E-02
(PID.TID 0000.0001) %MON forcing_fv_del2              =   2.1170835219132E-04
(PID.TID 0000.0001) %MON advcfl_uvel_max              =   0.0000000000000E+00
(PID.TID 0000.0001) %MON advcfl_vvel_max              =   0.0000000000000E+00
(PID.TID 0000.0001) %MON advcfl_wvel_max              =   0.0000000000000E+00
(PID.TID 0000.0001) %MON advcfl_W_hf_max              =   0.0000000000000E+00
(PID.TID 0000.0001) %MON pe_b_mean                    =   0.0000000000000E+00
(PID.TID 0000.0001) %MON ke_max                       =   0.0000000000000E+00
(PID.TID 0000.0001) %MON ke_mean                      =   0.0000000000000E+00
(PID.TID 0000.0001) %MON ke_vol                       =   1.4474490094807E+18
(PID.TID 0000.0001) %MON vort_r_min                   =   0.0000000000000E+00
(PID.TID 0000.0001) %MON vort_r_max                   =   0.0000000000000E+00
(PID.TID 0000.0001) %MON vort_a_mean                  =  -1.8569334076123E-05
(PID.TID 0000.0001) %MON vort_a_sd                    =   7.3617712056034E-05
(PID.TID 0000.0001) %MON vort_p_mean                  =  -2.1757776080171E-05
(PID.TID 0000.0001) %MON vort_p_sd                    =   9.9829079474587E-05
(PID.TID 0000.0001) %MON surfExpan_theta_mean         =   0.0000000000000E+00
(PID.TID 0000.0001) %MON surfExpan_salt_mean          =   0.0000000000000E+00
(PID.TID 0000.0001) // =======================================================
(PID.TID 0000.0001) // End MONITOR dynamic field statistics
(PID.TID 0000.0001) // =======================================================
(PID.TID 0000.0001) // =======================================================
(PID.TID 0000.0001) // Begin MONITOR ptracer field statistics
(PID.TID 0000.0001) // =======================================================
(PID.TID 0000.0001) %MON trcstat_ptracer01_max        =   1.0000000000000E+00
(PID.TID 0000.0001) %MON trcstat_ptracer01_min        =   0.0000000000000E+00
(PID.TID 0000.0001) %MON trcstat_ptracer01_mean       =   1.1521963240253E-02
(PID.TID 0000.0001) %MON trcstat_ptracer01_sd         =   1.0672023052516E-01
(PID.TID 0000.0001) %MON trcstat_ptracer01_del2       =   0.0000000000000E+00
(PID.TID 0000.0001) // =======================================================
(PID.TID 0000.0001) // End MONITOR ptracers field statistics
(PID.TID 0000.0001) // =======================================================
(PID.TID 0000.0001) SOLVE_FOR_PRESSURE: putPmEinXvector =    F
 cg2d: Sum(rhs),rhsMax =   4.57966997657877E-15  8.55254915209884E+00
(PID.TID 0000.0001)                    cg2d_init_res =    3.25964330325846E+00
(PID.TID 0000.0001)                       cg2d_iters =    51
(PID.TID 0000.0001)                         cg2d_res =    9.97121609801902E-18
(PID.TID 0000.0001) // =======================================================
(PID.TID 0000.0001) // Begin MONITOR dynamic field statistics
(PID.TID 0000.0001) // =======================================================
(PID.TID 0000.0001) %MON time_tsnumber                =                     1
(PID.TID 0000.0001) %MON time_secondsf                =   8.6400000000000E+04
(PID.TID 0000.0001) %MON dynstat_eta_max              =   8.7083955129949E-01
(PID.TID 0000.0001) %MON dynstat_eta_min              =  -3.5440825352849E-01
(PID.TID 0000.0001) %MON dynstat_eta_mean             =  -5.8555849330532E-18
(PID.TID 0000.0001) %MON dynstat_eta_sd               =   8.6484951585563E-02
(PID.TID 0000.0001) %MON dynstat_eta_del2             =   2.5693297072714E-03
(PID.TID 0000.0001) %MON dynstat_uvel_max             =   5.8154043988326E-02
(PID.TID 0000.0001) %MON dynstat_uvel_min             =  -1.2347638632761E-01
(PID.TID 0000.0001) %MON dynstat_uvel_mean            =  -1.3225551674631E-03
(PID.TID 0000.0001) %MON dynstat_uvel_sd              =   3.4087712578893E-03
(PID.TID 0000.0001) %MON dynstat_uvel_del2            =   2.9571647129535E-05
(PID.TID 0000.0001) %MON dynstat_vvel_max             =   1.0896886551677E-01
(PID.TID 0000.0001) %MON dynstat_vvel_min             =  -1.5259193897367E-01
(PID.TID 0000.0001) %MON dynstat_vvel_mean            =   2.8407768050158E-03
(PID.TID 0000.0001) %MON dynstat_vvel_sd              =   8.8491808719141E-03
(PID.TID 0000.0001) %MON dynstat_vvel_del2            =   3.5970900310725E-05
(PID.TID 0000.0001) %MON dynstat_wvel_max             =   4.1750645985266E-04
(PID.TID 0000.0001) %MON dynstat_wvel_min             =  -2.9802874998857E-04
(PID.TID 0000.0001) %MON dynstat_wvel_mean            =  -3.2981670179513E-07
(PID.TID 0000.0001) %MON dynstat_wvel_sd              =   1.9126565713680E-05
(PID.TID 0000.0001) %MON dynstat_wvel_del2            =   2.0401821096215E-07
(PID.TID 0000.0001) %MON dynstat_theta_max            =   2.9327980755348E+01
(PID.TID 0000.0001) %MON dynstat_theta_min            =  -1.8513879261731E+00
(PID.TID 0000.0001) %MON dynstat_theta_mean           =   3.4434668483202E+00
(PID.TID 0000.0001) %MON dynstat_theta_sd             =   4.2510831025359E+00
(PID.TID 0000.0001) %MON dynstat_theta_del2           =   5.1683993482881E-03
(PID.TID 0000.0001) %MON dynstat_salt_max             =   3.7438512393600E+01
(PID.TID 0000.0001) %MON dynstat_salt_min             =   3.1031060186620E+01
(PID.TID 0000.0001) %MON dynstat_salt_mean            =   3.4718545511620E+01
(PID.TID 0000.0001) %MON dynstat_salt_sd              =   2.8219507328089E-01
(PID.TID 0000.0001) %MON dynstat_salt_del2            =   8.2344897487274E-04
(PID.TID 0000.0001) %MON forcing_qnet_max             =   0.0000000000000E+00
(PID.TID 0000.0001) %MON forcing_qnet_min             =   0.0000000000000E+00
(PID.TID 0000.0001) %MON forcing_qnet_mean            =   0.0000000000000E+00
(PID.TID 0000.0001) %MON forcing_qnet_sd              =   0.0000000000000E+00
(PID.TID 0000.0001) %MON forcing_qnet_del2            =   0.0000000000000E+00
(PID.TID 0000.0001) %MON forcing_qsw_max              =   0.0000000000000E+00
(PID.TID 0000.0001) %MON forcing_qsw_min              =   0.0000000000000E+00
(PID.TID 0000.0001) %MON forcing_qsw_mean             =   0.0000000000000E+00
(PID.TID 0000.0001) %MON forcing_qsw_sd               =   0.0000000000000E+00
(PID.TID 0000.0001) %MON forcing_qsw_del2             =   0.0000000000000E+00
(PID.TID 0000.0001) %MON forcing_empmr_max            =   0.0000000000000E+00
(PID.TID 0000.0001) %MON forcing_empmr_min            =   0.0000000000000E+00
(PID.TID 0000.0001) %MON forcing_empmr_mean           =   0.0000000000000E+00
(PID.TID 0000.0001) %MON forcing_empmr_sd             =   0.0000000000000E+00
(PID.TID 0000.0001) %MON forcing_empmr_del2           =   0.0000000000000E+00
(PID.TID 0000.0001) %MON forcing_fu_max               =   1.6004334390163E-01
(PID.TID 0000.0001) %MON forcing_fu_min               =  -1.0329221189022E-01
(PID.TID 0000.0001) %MON forcing_fu_mean              =   4.1280488583042E-03
(PID.TID 0000.0001) %MON forcing_fu_sd                =   5.5800359441598E-02
(PID.TID 0000.0001) %MON forcing_fu_del2              =   3.2370368543277E-04
(PID.TID 0000.0001) %MON forcing_fv_max               =   8.4633164107800E-02
(PID.TID 0000.0001) %MON forcing_fv_min               =  -7.0490099489689E-02
(PID.TID 0000.0001) %MON forcing_fv_mean              =   2.8803575798275E-03
(PID.TID 0000.0001) %MON forcing_fv_sd                =   2.2193297771215E-02
(PID.TID 0000.0001) %MON forcing_fv_del2              =   2.1170835219132E-04
(PID.TID 0000.0001) %MON advcfl_uvel_max              =   3.8142831332511E-02
(PID.TID 0000.0001) %MON advcfl_vvel_max              =   2.9646166462109E-02
(PID.TID 0000.0001) %MON advcfl_wvel_max              =   1.5029743637402E-01
(PID.TID 0000.0001) %MON advcfl_W_hf_max              =   1.6796669958940E-01
(PID.TID 0000.0001) %MON pe_b_mean                    =   8.4542791959270E-06
(PID.TID 0000.0001) %MON ke_max                       =   7.3538831536440E-03
(PID.TID 0000.0001) %MON ke_mean                      =   4.5101845615489E-05
(PID.TID 0000.0001) %MON ke_vol                       =   1.4474490094807E+18
(PID.TID 0000.0001) %MON vort_r_min                   =  -3.6111908324818E-07
(PID.TID 0000.0001) %MON vort_r_max                   =   3.6028004333527E-07
(PID.TID 0000.0001) %MON vort_a_mean                  =  -1.8569334076122E-05
(PID.TID 0000.0001) %MON vort_a_sd                    =   7.3617441775445E-05
(PID.TID 0000.0001) %MON vort_p_mean                  =  -2.1757776080170E-05
(PID.TID 0000.0001) %MON vort_p_sd                    =   9.9828547564071E-05
(PID.TID 0000.0001) %MON surfExpan_theta_mean         =   2.5809383473101E-05
(PID.TID 0000.0001) %MON surfExpan_salt_mean          =   4.4564332333496E-07
(PID.TID 0000.0001) // =======================================================
(PID.TID 0000.0001) // End MONITOR dynamic field statistics
(PID.TID 0000.0001) // =======================================================
(PID.TID 0000.0001) // =======================================================
(PID.TID 0000.0001) // Begin MONITOR ptracer field statistics
(PID.TID 0000.0001) // =======================================================
(PID.TID 0000.0001) %MON trcstat_ptracer01_max        =   1.0042254150255E+00
(PID.TID 0000.0001) %MON trcstat_ptracer01_min        =   4.2092357168592E-79
(PID.TID 0000.0001) %MON trcstat_ptracer01_mean       =   1.1521963240253E-02
(PID.TID 0000.0001) %MON trcstat_ptracer01_sd         =   1.0643562464203E-01
(PID.TID 0000.0001) %MON trcstat_ptracer01_del2       =   2.7841954026231E-05
(PID.TID 0000.0001) // =======================================================
(PID.TID 0000.0001) // End MONITOR ptracers field statistics
(PID.TID 0000.0001) // =======================================================
 cg2d: Sum(rhs),rhsMax =  -6.43929354282591E-15  1.40264600356129E+01
(PID.TID 0000.0001)                    cg2d_init_res =    1.24509537879771E+00
(PID.TID 0000.0001)                       cg2d_iters =    51
(PID.TID 0000.0001)                         cg2d_res =    5.75972944856905E-18
(PID.TID 0000.0001) // =======================================================
(PID.TID 0000.0001) // Begin MONITOR dynamic field statistics
(PID.TID 0000.0001) // =======================================================
(PID.TID 0000.0001) %MON time_tsnumber                =                     2
(PID.TID 0000.0001) %MON time_secondsf                =   1.7280000000000E+05
(PID.TID 0000.0001) %MON dynstat_eta_max              =   1.5135300575112E+00
(PID.TID 0000.0001) %MON dynstat_eta_min              =  -7.0582014590889E-01
(PID.TID 0000.0001) %MON dynstat_eta_mean             =  -1.2648063455395E-17
(PID.TID 0000.0001) %MON dynstat_eta_sd               =   1.8546914696809E-01
(PID.TID 0000.0001) %MON dynstat_eta_del2             =   3.7357582143508E-03
(PID.TID 0000.0001) %MON dynstat_uvel_max             =   1.3094242436808E-01
(PID.TID 0000.0001) %MON dynstat_uvel_min             =  -2.1298400875256E-01
(PID.TID 0000.0001) %MON dynstat_uvel_mean            =  -3.4320116687929E-03
(PID.TID 0000.0001) %MON dynstat_uvel_sd              =   7.0367020110508E-03
(PID.TID 0000.0001) %MON dynstat_uvel_del2            =   6.2095517587036E-05
(PID.TID 0000.0001) %MON dynstat_vvel_max             =   1.9247733605584E-01
(PID.TID 0000.0001) %MON dynstat_vvel_min             =  -2.6757181718761E-01
(PID.TID 0000.0001) %MON dynstat_vvel_mean            =   5.0253051859573E-03
(PID.TID 0000.0001) %MON dynstat_vvel_sd              =   1.5094603378606E-02
(PID.TID 0000.0001) %MON dynstat_vvel_del2            =   7.5837759055652E-05
(PID.TID 0000.0001) %MON dynstat_wvel_max             =   8.7323103361941E-04
(PID.TID 0000.0001) %MON dynstat_wvel_min             =  -5.9437522917625E-04
(PID.TID 0000.0001) %MON dynstat_wvel_mean            =  -5.4722582553328E-07
(PID.TID 0000.0001) %MON dynstat_wvel_sd              =   3.6733234579316E-05
(PID.TID 0000.0001) %MON dynstat_wvel_del2            =   3.9077275918802E-07
(PID.TID 0000.0001) %MON dynstat_theta_max            =   2.9326326912726E+01
(PID.TID 0000.0001) %MON dynstat_theta_min            =  -1.8490700615943E+00
(PID.TID 0000.0001) %MON dynstat_theta_mean           =   3.4426594773219E+00
(PID.TID 0000.0001) %MON dynstat_theta_sd             =   4.2504997110187E+00
(PID.TID 0000.0001) %MON dynstat_theta_del2           =   5.1229696250526E-03
(PID.TID 0000.0001) %MON dynstat_salt_max             =   3.7437616106254E+01
(PID.TID 0000.0001) %MON dynstat_salt_min             =   3.1032638113947E+01
(PID.TID 0000.0001) %MON dynstat_salt_mean            =   3.4718531435310E+01
(PID.TID 0000.0001) %MON dynstat_salt_sd              =   2.8209812769206E-01
(PID.TID 0000.0001) %MON dynstat_salt_del2            =   8.2303236414625E-04
(PID.TID 0000.0001) %MON forcing_qnet_max             =   0.0000000000000E+00
(PID.TID 0000.0001) %MON forcing_qnet_min             =   0.0000000000000E+00
(PID.TID 0000.0001) %MON forcing_qnet_mean            =   0.0000000000000E+00
(PID.TID 0000.0001) %MON forcing_qnet_sd              =   0.0000000000000E+00
(PID.TID 0000.0001) %MON forcing_qnet_del2            =   0.0000000000000E+00
(PID.TID 0000.0001) %MON forcing_qsw_max              =   0.0000000000000E+00
(PID.TID 0000.0001) %MON forcing_qsw_min              =   0.0000000000000E+00
(PID.TID 0000.0001) %MON forcing_qsw_mean             =   0.0000000000000E+00
(PID.TID 0000.0001) %MON forcing_qsw_sd               =   0.0000000000000E+00
(PID.TID 0000.0001) %MON forcing_qsw_del2             =   0.0000000000000E+00
(PID.TID 0000.0001) %MON forcing_empmr_max            =   0.0000000000000E+00
(PID.TID 0000.0001) %MON forcing_empmr_min            =   0.0000000000000E+00
(PID.TID 0000.0001) %MON forcing_empmr_mean           =   0.0000000000000E+00
(PID.TID 0000.0001) %MON forcing_empmr_sd             =   0.0000000000000E+00
(PID.TID 0000.0001) %MON forcing_empmr_del2           =   0.0000000000000E+00
(PID.TID 0000.0001) %MON forcing_fu_max               =   1.6004334390163E-01
(PID.TID 0000.0001) %MON forcing_fu_min               =  -1.0329221189022E-01
(PID.TID 0000.0001) %MON forcing_fu_mean              =   4.1280488583042E-03
(PID.TID 0000.0001) %MON forcing_fu_sd                =   5.5800359441598E-02
(PID.TID 0000.0001) %MON forcing_fu_del2              =   3.2370368543277E-04
(PID.TID 0000.0001) %MON forcing_fv_max               =   8.4633164107800E-02
(PID.TID 0000.0001) %MON forcing_fv_min               =  -7.0490099489689E-02
(PID.TID 0000.0001) %MON forcing_fv_mean              =   2.8803575798275E-03
(PID.TID 0000.0001) %MON forcing_fv_sd                =   2.2193297771215E-02
(PID.TID 0000.0001) %MON forcing_fv_del2              =   2.1170835219132E-04
(PID.TID 0000.0001) %MON advcfl_uvel_max              =   6.3081163898885E-02
(PID.TID 0000.0001) %MON advcfl_vvel_max              =   5.1984912743534E-02
(PID.TID 0000.0001) %MON advcfl_wvel_max              =   3.0898055289776E-01
(PID.TID 0000.0001) %MON advcfl_W_hf_max              =   3.4534694168871E-01
(PID.TID 0000.0001) %MON pe_b_mean                    =   3.8881126724026E-05
(PID.TID 0000.0001) %MON ke_max                       =   2.2590368148844E-02
(PID.TID 0000.0001) %MON ke_mean                      =   1.4229464573732E-04
(PID.TID 0000.0001) %MON ke_vol                       =   1.4474490094807E+18
(PID.TID 0000.0001) %MON vort_r_min                   =  -6.2713606884180E-07
(PID.TID 0000.0001) %MON vort_r_max                   =   6.3391391172617E-07
(PID.TID 0000.0001) %MON vort_a_mean                  =  -1.8569334076122E-05
(PID.TID 0000.0001) %MON vort_a_sd                    =   7.3617038839618E-05
(PID.TID 0000.0001) %MON vort_p_mean                  =  -2.1757772754917E-05
(PID.TID 0000.0001) %MON vort_p_sd                    =   9.9828173311761E-05
(PID.TID 0000.0001) %MON surfExpan_theta_mean         =   3.8442516221904E-05
(PID.TID 0000.0001) %MON surfExpan_salt_mean          =   9.0916652071767E-07
(PID.TID 0000.0001) // =======================================================
(PID.TID 0000.0001) // End MONITOR dynamic field statistics
(PID.TID 0000.0001) // =======================================================
(PID.TID 0000.0001) // =======================================================
(PID.TID 0000.0001) // Begin MONITOR ptracer field statistics
(PID.TID 0000.0001) // =======================================================
(PID.TID 0000.0001) %MON trcstat_ptracer01_max        =   1.0135036661553E+00
(PID.TID 0000.0001) %MON trcstat_ptracer01_min        =  -2.2656916479401E-02
(PID.TID 0000.0001) %MON trcstat_ptracer01_mean       =   1.1522069534338E-02
(PID.TID 0000.0001) %MON trcstat_ptracer01_sd         =   1.0617088937809E-01
(PID.TID 0000.0001) %MON trcstat_ptracer01_del2       =   4.4709914187225E-05
(PID.TID 0000.0001) // =======================================================
(PID.TID 0000.0001) // End MONITOR ptracers field statistics
(PID.TID 0000.0001) // =======================================================
 cg2d: Sum(rhs),rhsMax =   1.22124532708767E-15  1.48617698101369E+01
(PID.TID 0000.0001)                    cg2d_init_res =    8.97385798232982E-01
(PID.TID 0000.0001)                       cg2d_iters =    51
(PID.TID 0000.0001)                         cg2d_res =    4.45096257337361E-18
(PID.TID 0000.0001) // =======================================================
(PID.TID 0000.0001) // Begin MONITOR dynamic field statistics
(PID.TID 0000.0001) // =======================================================
(PID.TID 0000.0001) %MON time_tsnumber                =                     3
(PID.TID 0000.0001) %MON time_secondsf                =   2.5920000000000E+05
(PID.TID 0000.0001) %MON dynstat_eta_max              =   1.7070430954793E+00
(PID.TID 0000.0001) %MON dynstat_eta_min              =  -9.7462851348301E-01
(PID.TID 0000.0001) %MON dynstat_eta_mean             =   3.7475743571540E-18
(PID.TID 0000.0001) %MON dynstat_eta_sd               =   2.7971430455584E-01
(PID.TID 0000.0001) %MON dynstat_eta_del2             =   3.7146242334737E-03
(PID.TID 0000.0001) %MON dynstat_uvel_max             =   2.0781451808309E-01
(PID.TID 0000.0001) %MON dynstat_uvel_min             =  -2.8891153913432E-01
(PID.TID 0000.0001) %MON dynstat_uvel_mean            =  -5.8986610848340E-03
(PID.TID 0000.0001) %MON dynstat_uvel_sd              =   1.0982132076656E-02
(PID.TID 0000.0001) %MON dynstat_uvel_del2            =   8.9451609257256E-05
(PID.TID 0000.0001) %MON dynstat_vvel_max             =   2.6819627536207E-01
(PID.TID 0000.0001) %MON dynstat_vvel_min             =  -3.7152594551984E-01
(PID.TID 0000.0001) %MON dynstat_vvel_mean            =   6.4215269071200E-03
(PID.TID 0000.0001) %MON dynstat_vvel_sd              =   1.9130700608398E-02
(PID.TID 0000.0001) %MON dynstat_vvel_del2            =   1.0791183283941E-04
(PID.TID 0000.0001) %MON dynstat_wvel_max             =   1.3197894901501E-03
(PID.TID 0000.0001) %MON dynstat_wvel_min             =  -8.8059111371427E-04
(PID.TID 0000.0001) %MON dynstat_wvel_mean            =  -6.4340589456380E-07
(PID.TID 0000.0001) %MON dynstat_wvel_sd              =   5.1626380320281E-05
(PID.TID 0000.0001) %MON dynstat_wvel_del2            =   5.4230819437747E-07
(PID.TID 0000.0001) %MON dynstat_theta_max            =   2.9324666962567E+01
(PID.TID 0000.0001) %MON dynstat_theta_min            =  -1.8440860416984E+00
(PID.TID 0000.0001) %MON dynstat_theta_mean           =   3.4417649857742E+00
(PID.TID 0000.0001) %MON dynstat_theta_sd             =   4.2499038237095E+00
(PID.TID 0000.0001) %MON dynstat_theta_del2           =   5.0646474857854E-03
(PID.TID 0000.0001) %MON dynstat_salt_max             =   3.7436734571337E+01
(PID.TID 0000.0001) %MON dynstat_salt_min             =   3.1033094030637E+01
(PID.TID 0000.0001) %MON dynstat_salt_mean            =   3.4718508074720E+01
(PID.TID 0000.0001) %MON dynstat_salt_sd              =   2.8201945236100E-01
(PID.TID 0000.0001) %MON dynstat_salt_del2            =   8.2138175256019E-04
(PID.TID 0000.0001) %MON forcing_qnet_max             =   0.0000000000000E+00
(PID.TID 0000.0001) %MON forcing_qnet_min             =   0.0000000000000E+00
(PID.TID 0000.0001) %MON forcing_qnet_mean            =   0.0000000000000E+00
(PID.TID 0000.0001) %MON forcing_qnet_sd              =   0.0000000000000E+00
(PID.TID 0000.0001) %MON forcing_qnet_del2            =   0.0000000000000E+00
(PID.TID 0000.0001) %MON forcing_qsw_max              =   0.0000000000000E+00
(PID.TID 0000.0001) %MON forcing_qsw_min              =   0.0000000000000E+00
(PID.TID 0000.0001) %MON forcing_qsw_mean             =   0.0000000000000E+00
(PID.TID 0000.0001) %MON forcing_qsw_sd               =   0.0000000000000E+00
(PID.TID 0000.0001) %MON forcing_qsw_del2             =   0.0000000000000E+00
(PID.TID 0000.0001) %MON forcing_empmr_max            =   0.0000000000000E+00
(PID.TID 0000.0001) %MON forcing_empmr_min            =   0.0000000000000E+00
(PID.TID 0000.0001) %MON forcing_empmr_mean           =   0.0000000000000E+00
(PID.TID 0000.0001) %MON forcing_empmr_sd             =   0.0000000000000E+00
(PID.TID 0000.0001) %MON forcing_empmr_del2           =   0.0000000000000E+00
(PID.TID 0000.0001) %MON forcing_fu_max               =   1.6004334390163E-01
(PID.TID 0000.0001) %MON forcing_fu_min               =  -1.0329221189022E-01
(PID.TID 0000.0001) %MON forcing_fu_mean              =   4.1280488583042E-03
(PID.TID 0000.0001) %MON forcing_fu_sd                =   5.5800359441598E-02
(PID.TID 0000.0001) %MON forcing_fu_del2              =   3.2370368543277E-04
(PID.TID 0000.0001) %MON forcing_fv_max               =   8.4633164107800E-02
(PID.TID 0000.0001) %MON forcing_fv_min               =  -7.0490099489689E-02
(PID.TID 0000.0001) %MON forcing_fv_mean              =   2.8803575798275E-03
(PID.TID 0000.0001) %MON forcing_fv_sd                =   2.2193297771215E-02
(PID.TID 0000.0001) %MON forcing_fv_del2              =   2.1170835219132E-04
(PID.TID 0000.0001) %MON advcfl_uvel_max              =   8.1490037072475E-02
(PID.TID 0000.0001) %MON advcfl_vvel_max              =   7.2181532654712E-02
(PID.TID 0000.0001) %MON advcfl_wvel_max              =   4.5960708465067E-01
(PID.TID 0000.0001) %MON advcfl_W_hf_max              =   5.1448503657266E-01
(PID.TID 0000.0001) %MON pe_b_mean                    =   8.8435135608037E-05
(PID.TID 0000.0001) %MON ke_max                       =   4.2894736727441E-02
(PID.TID 0000.0001) %MON ke_mean                      =   2.5496874795313E-04
(PID.TID 0000.0001) %MON ke_vol                       =   1.4474490094807E+18
(PID.TID 0000.0001) %MON vort_r_min                   =  -8.5284113610530E-07
(PID.TID 0000.0001) %MON vort_r_max                   =   8.9006395176199E-07
(PID.TID 0000.0001) %MON vort_a_mean                  =  -1.8569334076122E-05
(PID.TID 0000.0001) %MON vort_a_sd                    =   7.3616574711756E-05
(PID.TID 0000.0001) %MON vort_p_mean                  =  -2.1757768166384E-05
(PID.TID 0000.0001) %MON vort_p_sd                    =   9.9827983343672E-05
(PID.TID 0000.0001) %MON surfExpan_theta_mean         =   4.2607867210441E-05
(PID.TID 0000.0001) %MON surfExpan_salt_mean          =   1.2742799511207E-06
(PID.TID 0000.0001) // =======================================================
(PID.TID 0000.0001) // End MONITOR dynamic field statistics
(PID.TID 0000.0001) // =======================================================
(PID.TID 0000.0001) // =======================================================
(PID.TID 0000.0001) // Begin MONITOR ptracer field statistics
(PID.TID 0000.0001) // =======================================================
(PID.TID 0000.0001) %MON trcstat_ptracer01_max        =   1.0365923684272E+00
(PID.TID 0000.0001) %MON trcstat_ptracer01_min        =  -6.2100609306458E-02
(PID.TID 0000.0001) %MON trcstat_ptracer01_mean       =   1.1522203396776E-02
(PID.TID 0000.0001) %MON trcstat_ptracer01_sd         =   1.0592015940481E-01
(PID.TID 0000.0001) %MON trcstat_ptracer01_del2       =   6.1339754676395E-05
(PID.TID 0000.0001) // =======================================================
(PID.TID 0000.0001) // End MONITOR ptracers field statistics
(PID.TID 0000.0001) // =======================================================
 cg2d: Sum(rhs),rhsMax =   5.77315972805081E-15  1.35262297106097E+01
(PID.TID 0000.0001)                    cg2d_init_res =    9.43769316412148E-01
(PID.TID 0000.0001)                       cg2d_iters =    51
(PID.TID 0000.0001)                         cg2d_res =    4.97420535996030E-18
(PID.TID 0000.0001) // =======================================================
(PID.TID 0000.0001) // Begin MONITOR dynamic field statistics
(PID.TID 0000.0001) // =======================================================
(PID.TID 0000.0001) %MON time_tsnumber                =                     4
(PID.TID 0000.0001) %MON time_secondsf                =   3.4560000000000E+05
(PID.TID 0000.0001) %MON dynstat_eta_max              =   1.6500887461211E+00
(PID.TID 0000.0001) %MON dynstat_eta_min              =  -1.2506228146780E+00
(PID.TID 0000.0001) %MON dynstat_eta_mean             =  -7.8699061500235E-17
(PID.TID 0000.0001) %MON dynstat_eta_sd               =   3.6382730145440E-01
(PID.TID 0000.0001) %MON dynstat_eta_del2             =   3.3469110345731E-03
(PID.TID 0000.0001) %MON dynstat_uvel_max             =   2.7099854722622E-01
(PID.TID 0000.0001) %MON dynstat_uvel_min             =  -3.6195125122447E-01
(PID.TID 0000.0001) %MON dynstat_uvel_mean            =  -8.3162883879013E-03
(PID.TID 0000.0001) %MON dynstat_uvel_sd              =   1.4908718164144E-02
(PID.TID 0000.0001) %MON dynstat_uvel_del2            =   1.1044695233496E-04
(PID.TID 0000.0001) %MON dynstat_vvel_max             =   3.4453378771644E-01
(PID.TID 0000.0001) %MON dynstat_vvel_min             =  -4.7560183654066E-01
(PID.TID 0000.0001) %MON dynstat_vvel_mean            =   7.0305815053640E-03
(PID.TID 0000.0001) %MON dynstat_vvel_sd              =   2.1391383385093E-02
(PID.TID 0000.0001) %MON dynstat_vvel_del2            =   1.2811008843209E-04
(PID.TID 0000.0001) %MON dynstat_wvel_max             =   1.7375485811770E-03
(PID.TID 0000.0001) %MON dynstat_wvel_min             =  -1.1467159666861E-03
(PID.TID 0000.0001) %MON dynstat_wvel_mean            =  -6.3587129446617E-07
(PID.TID 0000.0001) %MON dynstat_wvel_sd              =   6.3585512498646E-05
(PID.TID 0000.0001) %MON dynstat_wvel_del2            =   6.5500073811711E-07
(PID.TID 0000.0001) %MON dynstat_theta_max            =   2.9322976851736E+01
(PID.TID 0000.0001) %MON dynstat_theta_min            =  -1.8173032669114E+00
(PID.TID 0000.0001) %MON dynstat_theta_mean           =   3.4408905427951E+00
(PID.TID 0000.0001) %MON dynstat_theta_sd             =   4.2492918425188E+00
(PID.TID 0000.0001) %MON dynstat_theta_del2           =   5.0107888697450E-03
(PID.TID 0000.0001) %MON dynstat_salt_max             =   3.7435893166513E+01
(PID.TID 0000.0001) %MON dynstat_salt_min             =   3.1032857463188E+01
(PID.TID 0000.0001) %MON dynstat_salt_mean            =   3.4718478676870E+01
(PID.TID 0000.0001) %MON dynstat_salt_sd              =   2.8195492076460E-01
(PID.TID 0000.0001) %MON dynstat_salt_del2            =   8.1959202174519E-04
(PID.TID 0000.0001) %MON forcing_qnet_max             =   0.0000000000000E+00
(PID.TID 0000.0001) %MON forcing_qnet_min             =   0.0000000000000E+00
(PID.TID 0000.0001) %MON forcing_qnet_mean            =   0.0000000000000E+00
(PID.TID 0000.0001) %MON forcing_qnet_sd              =   0.0000000000000E+00
(PID.TID 0000.0001) %MON forcing_qnet_del2            =   0.0000000000000E+00
(PID.TID 0000.0001) %MON forcing_qsw_max              =   0.0000000000000E+00
(PID.TID 0000.0001) %MON forcing_qsw_min              =   0.0000000000000E+00
(PID.TID 0000.0001) %MON forcing_qsw_mean             =   0.0000000000000E+00
(PID.TID 0000.0001) %MON forcing_qsw_sd               =   0.0000000000000E+00
(PID.TID 0000.0001) %MON forcing_qsw_del2             =   0.0000000000000E+00
(PID.TID 0000.0001) %MON forcing_empmr_max            =   0.0000000000000E+00
(PID.TID 0000.0001) %MON forcing_empmr_min            =   0.0000000000000E+00
(PID.TID 0000.0001) %MON forcing_empmr_mean           =   0.0000000000000E+00
(PID.TID 0000.0001) %MON forcing_empmr_sd             =   0.0000000000000E+00
(PID.TID 0000.0001) %MON forcing_empmr_del2           =   0.0000000000000E+00
(PID.TID 0000.0001) %MON forcing_fu_max               =   1.6004334390163E-01
(PID.TID 0000.0001) %MON forcing_fu_min               =  -1.0329221189022E-01
(PID.TID 0000.0001) %MON forcing_fu_mean              =   4.1280488583042E-03
(PID.TID 0000.0001) %MON forcing_fu_sd                =   5.5800359441598E-02
(PID.TID 0000.0001) %MON forcing_fu_del2              =   3.2370368543277E-04
(PID.TID 0000.0001) %MON forcing_fv_max               =   8.4633164107800E-02
(PID.TID 0000.0001) %MON forcing_fv_min               =  -7.0490099489689E-02
(PID.TID 0000.0001) %MON forcing_fv_mean              =   2.8803575798275E-03
(PID.TID 0000.0001) %MON forcing_fv_sd                =   2.2193297771215E-02
(PID.TID 0000.0001) %MON forcing_fv_del2              =   2.1170835219132E-04
(PID.TID 0000.0001) %MON advcfl_uvel_max              =   9.2849751396303E-02
(PID.TID 0000.0001) %MON advcfl_vvel_max              =   9.2401809103443E-02
(PID.TID 0000.0001) %MON advcfl_wvel_max              =   5.9745564632077E-01
(PID.TID 0000.0001) %MON advcfl_W_hf_max              =   6.7031217460914E-01
(PID.TID 0000.0001) %MON pe_b_mean                    =   1.4961876415385E-04
(PID.TID 0000.0001) %MON ke_max                       =   6.9167493024836E-02
(PID.TID 0000.0001) %MON ke_mean                      =   3.6234928663909E-04
(PID.TID 0000.0001) %MON ke_vol                       =   1.4474490094807E+18
(PID.TID 0000.0001) %MON vort_r_min                   =  -1.0729143952642E-06
(PID.TID 0000.0001) %MON vort_r_max                   =   1.1451774456997E-06
(PID.TID 0000.0001) %MON vort_a_mean                  =  -1.8569334076122E-05
(PID.TID 0000.0001) %MON vort_a_sd                    =   7.3616117427970E-05
(PID.TID 0000.0001) %MON vort_p_mean                  =  -2.1757763752999E-05
(PID.TID 0000.0001) %MON vort_p_sd                    =   9.9827998658818E-05
(PID.TID 0000.0001) %MON surfExpan_theta_mean         =   4.1494244089879E-05
(PID.TID 0000.0001) %MON surfExpan_salt_mean          =   1.4908168176638E-06
(PID.TID 0000.0001) // =======================================================
(PID.TID 0000.0001) // End MONITOR dynamic field statistics
(PID.TID 0000.0001) // =======================================================
(PID.TID 0000.0001) // =======================================================
(PID.TID 0000.0001) // Begin MONITOR ptracer field statistics
(PID.TID 0000.0001) // =======================================================
(PID.TID 0000.0001) %MON trcstat_ptracer01_max        =   1.0639847352208E+00
(PID.TID 0000.0001) %MON trcstat_ptracer01_min        =  -1.1325390655258E-01
(PID.TID 0000.0001) %MON trcstat_ptracer01_mean       =   1.1522227233237E-02
(PID.TID 0000.0001) %MON trcstat_ptracer01_sd         =   1.0568257735625E-01
(PID.TID 0000.0001) %MON trcstat_ptracer01_del2       =   7.8094559002475E-05
(PID.TID 0000.0001) // =======================================================
(PID.TID 0000.0001) // End MONITOR ptracers field statistics
(PID.TID 0000.0001) // =======================================================
(PID.TID 0000.0001) %CHECKPOINT         4 ckptA
 --> objf_test(bi,bj)   =  0.000000000000000D+00
 --> objf_tracer(bi,bj) =  0.513256884509617D+14
 --> objf_atl(bi,bj)    =  0.000000000000000D+00
 --> objf_test(bi,bj)   =  0.000000000000000D+00
 --> objf_tracer(bi,bj) =  0.579144301174172D+14
 --> objf_atl(bi,bj)    =  0.000000000000000D+00
 --> objf_test(bi,bj)   =  0.000000000000000D+00
 --> objf_tracer(bi,bj) =  0.267030679864166D+14
 --> objf_atl(bi,bj)    =  0.000000000000000D+00
 --> objf_test(bi,bj)   =  0.000000000000000D+00
 --> objf_tracer(bi,bj) =  0.481653540628240D+14
 --> objf_atl(bi,bj)    =  0.000000000000000D+00
  local fc =  0.184108540617620D+15
 global fc =  0.184108540617620D+15
(PID.TID 0000.0001) SOLVE_FOR_PRESSURE: putPmEinXvector =    F
 cg2d: Sum(rhs),rhsMax =   4.57966997657877E-15  8.55254915209884E+00
 cg2d: Sum(rhs),rhsMax =  -1.11022302462516E-15  1.40264600356129E+01
 cg2d: Sum(rhs),rhsMax =   5.99520433297585E-15  1.48617698101369E+01
 cg2d: Sum(rhs),rhsMax =  -4.88498130835069E-15  1.35262297106097E+01
(PID.TID 0000.0001) Did not write pickup because writePickupAtEnd = FALSE
 cg2d: Sum(rhs),rhsMax =  -4.88498130835069E-15  1.35262297106097E+01
(PID.TID 0000.0001) Did not write pickup because writePickupAtEnd = FALSE
(PID.TID 0000.0001) // =======================================================
(PID.TID 0000.0001) // Begin MONITOR dynamic field statistics
(PID.TID 0000.0001) // =======================================================
(PID.TID 0000.0001) %MON ad_time_tsnumber             =                     4
(PID.TID 0000.0001) %MON ad_time_secondsf             =   3.4560000000000E+05
(PID.TID 0000.0001) %MON ad_dynstat_adeta_max         =   0.0000000000000E+00
(PID.TID 0000.0001) %MON ad_dynstat_adeta_min         =   0.0000000000000E+00
(PID.TID 0000.0001) %MON ad_dynstat_adeta_mean        =   0.0000000000000E+00
(PID.TID 0000.0001) %MON ad_dynstat_adeta_sd          =   0.0000000000000E+00
(PID.TID 0000.0001) %MON ad_dynstat_adeta_del2        =   0.0000000000000E+00
(PID.TID 0000.0001) %MON ad_dynstat_aduvel_max        =   0.0000000000000E+00
(PID.TID 0000.0001) %MON ad_dynstat_aduvel_min        =   0.0000000000000E+00
(PID.TID 0000.0001) %MON ad_dynstat_aduvel_mean       =   0.0000000000000E+00
(PID.TID 0000.0001) %MON ad_dynstat_aduvel_sd         =   0.0000000000000E+00
(PID.TID 0000.0001) %MON ad_dynstat_aduvel_del2       =   0.0000000000000E+00
(PID.TID 0000.0001) %MON ad_dynstat_advvel_max        =   0.0000000000000E+00
(PID.TID 0000.0001) %MON ad_dynstat_advvel_min        =   0.0000000000000E+00
(PID.TID 0000.0001) %MON ad_dynstat_advvel_mean       =   0.0000000000000E+00
(PID.TID 0000.0001) %MON ad_dynstat_advvel_sd         =   0.0000000000000E+00
(PID.TID 0000.0001) %MON ad_dynstat_advvel_del2       =   0.0000000000000E+00
(PID.TID 0000.0001) %MON ad_dynstat_adwvel_max        =   0.0000000000000E+00
(PID.TID 0000.0001) %MON ad_dynstat_adwvel_min        =   0.0000000000000E+00
(PID.TID 0000.0001) %MON ad_dynstat_adwvel_mean       =   0.0000000000000E+00
(PID.TID 0000.0001) %MON ad_dynstat_adwvel_sd         =   0.0000000000000E+00
(PID.TID 0000.0001) %MON ad_dynstat_adwvel_del2       =   0.0000000000000E+00
(PID.TID 0000.0001) %MON ad_dynstat_adtheta_max       =   0.0000000000000E+00
(PID.TID 0000.0001) %MON ad_dynstat_adtheta_min       =   0.0000000000000E+00
(PID.TID 0000.0001) %MON ad_dynstat_adtheta_mean      =   0.0000000000000E+00
(PID.TID 0000.0001) %MON ad_dynstat_adtheta_sd        =   0.0000000000000E+00
(PID.TID 0000.0001) %MON ad_dynstat_adtheta_del2      =   0.0000000000000E+00
(PID.TID 0000.0001) %MON ad_dynstat_adsalt_max        =   0.0000000000000E+00
(PID.TID 0000.0001) %MON ad_dynstat_adsalt_min        =   0.0000000000000E+00
(PID.TID 0000.0001) %MON ad_dynstat_adsalt_mean       =   0.0000000000000E+00
(PID.TID 0000.0001) %MON ad_dynstat_adsalt_sd         =   0.0000000000000E+00
(PID.TID 0000.0001) %MON ad_dynstat_adsalt_del2       =   0.0000000000000E+00
(PID.TID 0000.0001) %MON ad_forcing_adqnet_max        =   0.0000000000000E+00
(PID.TID 0000.0001) %MON ad_forcing_adqnet_min        =   0.0000000000000E+00
(PID.TID 0000.0001) %MON ad_forcing_adqnet_mean       =   0.0000000000000E+00
(PID.TID 0000.0001) %MON ad_forcing_adqnet_sd         =   0.0000000000000E+00
(PID.TID 0000.0001) %MON ad_forcing_adqnet_del2       =   0.0000000000000E+00
(PID.TID 0000.0001) %MON ad_forcing_adqsw_max         =   0.0000000000000E+00
(PID.TID 0000.0001) %MON ad_forcing_adqsw_min         =   0.0000000000000E+00
(PID.TID 0000.0001) %MON ad_forcing_adqsw_mean        =   0.0000000000000E+00
(PID.TID 0000.0001) %MON ad_forcing_adqsw_sd          =   0.0000000000000E+00
(PID.TID 0000.0001) %MON ad_forcing_adqsw_del2        =   0.0000000000000E+00
(PID.TID 0000.0001) %MON ad_forcing_adempmr_max       =   0.0000000000000E+00
(PID.TID 0000.0001) %MON ad_forcing_adempmr_min       =   0.0000000000000E+00
(PID.TID 0000.0001) %MON ad_forcing_adempmr_mean      =   0.0000000000000E+00
(PID.TID 0000.0001) %MON ad_forcing_adempmr_sd        =   0.0000000000000E+00
(PID.TID 0000.0001) %MON ad_forcing_adempmr_del2      =   0.0000000000000E+00
(PID.TID 0000.0001) %MON ad_forcing_adfu_max          =   0.0000000000000E+00
(PID.TID 0000.0001) %MON ad_forcing_adfu_min          =   0.0000000000000E+00
(PID.TID 0000.0001) %MON ad_forcing_adfu_mean         =   0.0000000000000E+00
(PID.TID 0000.0001) %MON ad_forcing_adfu_sd           =   0.0000000000000E+00
(PID.TID 0000.0001) %MON ad_forcing_adfu_del2         =   0.0000000000000E+00
(PID.TID 0000.0001) %MON ad_forcing_adfv_max          =   0.0000000000000E+00
(PID.TID 0000.0001) %MON ad_forcing_adfv_min          =   0.0000000000000E+00
(PID.TID 0000.0001) %MON ad_forcing_adfv_mean         =   0.0000000000000E+00
(PID.TID 0000.0001) %MON ad_forcing_adfv_sd           =   0.0000000000000E+00
(PID.TID 0000.0001) %MON ad_forcing_adfv_del2         =   0.0000000000000E+00
(PID.TID 0000.0001) %MON ad_advcfl_aduvel_max         =   0.0000000000000E+00
(PID.TID 0000.0001) %MON ad_advcfl_advvel_max         =   0.0000000000000E+00
(PID.TID 0000.0001) %MON ad_advcfl_adwvel_max         =   0.0000000000000E+00
(PID.TID 0000.0001) %MON ad_advcfl_adW_hf_max         =   0.0000000000000E+00
(PID.TID 0000.0001) // =======================================================
(PID.TID 0000.0001) // End MONITOR dynamic field statistics
(PID.TID 0000.0001) // =======================================================
(PID.TID 0000.0001) // =======================================================
(PID.TID 0000.0001) // Begin MONITOR adptracer field statistics
(PID.TID 0000.0001) // =======================================================
(PID.TID 0000.0001) %MON ad_trcstat_adptracer01_max   =   2.7445707811273E+10
(PID.TID 0000.0001) %MON ad_trcstat_adptracer01_min   =   0.0000000000000E+00
(PID.TID 0000.0001) %MON ad_trcstat_adptracer01_mean  =   2.6303359076274E+08
(PID.TID 0000.0001) %MON ad_trcstat_adptracer01_sd    =   2.4883254339845E+09
(PID.TID 0000.0001) %MON ad_trcstat_adptracer01_del2  =   9.8653796662829E+06
(PID.TID 0000.0001) // =======================================================
(PID.TID 0000.0001) // End MONITOR ptracers field statistics
(PID.TID 0000.0001) // =======================================================
 cg2d: Sum(rhs),rhsMax =   0.00000000000000E+00  0.00000000000000E+00
 cg2d: Sum(rhs),rhsMax =   5.99520433297585E-15  1.48617698101369E+01
(PID.TID 0000.0001) // =======================================================
(PID.TID 0000.0001) // Begin MONITOR dynamic field statistics
(PID.TID 0000.0001) // =======================================================
(PID.TID 0000.0001) %MON ad_time_tsnumber             =                     3
(PID.TID 0000.0001) %MON ad_time_secondsf             =   2.5920000000000E+05
(PID.TID 0000.0001) %MON ad_dynstat_adeta_max         =   0.0000000000000E+00
(PID.TID 0000.0001) %MON ad_dynstat_adeta_min         =   0.0000000000000E+00
(PID.TID 0000.0001) %MON ad_dynstat_adeta_mean        =   0.0000000000000E+00
(PID.TID 0000.0001) %MON ad_dynstat_adeta_sd          =   0.0000000000000E+00
(PID.TID 0000.0001) %MON ad_dynstat_adeta_del2        =   0.0000000000000E+00
(PID.TID 0000.0001) %MON ad_dynstat_aduvel_max        =   1.5065607862325E+09
(PID.TID 0000.0001) %MON ad_dynstat_aduvel_min        =  -1.5151578832982E+09
(PID.TID 0000.0001) %MON ad_dynstat_aduvel_mean       =  -4.3414808679512E+03
(PID.TID 0000.0001) %MON ad_dynstat_aduvel_sd         =   9.8175405700333E+06
(PID.TID 0000.0001) %MON ad_dynstat_aduvel_del2       =   3.7524159192612E+05
(PID.TID 0000.0001) %MON ad_dynstat_advvel_max        =   1.5640158937481E+09
(PID.TID 0000.0001) %MON ad_dynstat_advvel_min        =  -1.4577953402216E+09
(PID.TID 0000.0001) %MON ad_dynstat_advvel_mean       =  -4.5490046516165E+04
(PID.TID 0000.0001) %MON ad_dynstat_advvel_sd         =   1.2432485280198E+07
(PID.TID 0000.0001) %MON ad_dynstat_advvel_del2       =   4.3991740762647E+05
(PID.TID 0000.0001) %MON ad_dynstat_adwvel_max        =   2.5158800210435E+09
(PID.TID 0000.0001) %MON ad_dynstat_adwvel_min        =  -3.7726125221618E+13
(PID.TID 0000.0001) %MON ad_dynstat_adwvel_mean       =  -3.8907902324736E+11
(PID.TID 0000.0001) %MON ad_dynstat_adwvel_sd         =   3.5379538226603E+12
(PID.TID 0000.0001) %MON ad_dynstat_adwvel_del2       =   1.3661463456242E+10
(PID.TID 0000.0001) %MON ad_dynstat_adtheta_max       =   1.8933770748677E+10
(PID.TID 0000.0001) %MON ad_dynstat_adtheta_min       =  -1.8540874470037E+10
(PID.TID 0000.0001) %MON ad_dynstat_adtheta_mean      =  -9.5921267672674E+03
(PID.TID 0000.0001) %MON ad_dynstat_adtheta_sd        =   1.0304665460161E+08
(PID.TID 0000.0001) %MON ad_dynstat_adtheta_del2      =   2.7610220907313E+06
(PID.TID 0000.0001) %MON ad_dynstat_adsalt_max        =   6.8601235539139E+10
(PID.TID 0000.0001) %MON ad_dynstat_adsalt_min        =  -7.0889046069873E+10
(PID.TID 0000.0001) %MON ad_dynstat_adsalt_mean       =  -1.3960317473154E+07
(PID.TID 0000.0001) %MON ad_dynstat_adsalt_sd         =   4.1500830013945E+08
(PID.TID 0000.0001) %MON ad_dynstat_adsalt_del2       =   1.0223210318069E+07
(PID.TID 0000.0001) %MON ad_forcing_adqnet_max        =   0.0000000000000E+00
(PID.TID 0000.0001) %MON ad_forcing_adqnet_min        =   0.0000000000000E+00
(PID.TID 0000.0001) %MON ad_forcing_adqnet_mean       =   0.0000000000000E+00
(PID.TID 0000.0001) %MON ad_forcing_adqnet_sd         =   0.0000000000000E+00
(PID.TID 0000.0001) %MON ad_forcing_adqnet_del2       =   0.0000000000000E+00
(PID.TID 0000.0001) %MON ad_forcing_adqsw_max         =   0.0000000000000E+00
(PID.TID 0000.0001) %MON ad_forcing_adqsw_min         =   0.0000000000000E+00
(PID.TID 0000.0001) %MON ad_forcing_adqsw_mean        =   0.0000000000000E+00
(PID.TID 0000.0001) %MON ad_forcing_adqsw_sd          =   0.0000000000000E+00
(PID.TID 0000.0001) %MON ad_forcing_adqsw_del2        =   0.0000000000000E+00
(PID.TID 0000.0001) %MON ad_forcing_adempmr_max       =   2.6536103791818E+12
(PID.TID 0000.0001) %MON ad_forcing_adempmr_min       =   7.2941944047503E+11
(PID.TID 0000.0001) %MON ad_forcing_adempmr_mean      =   2.2043906270293E+12
(PID.TID 0000.0001) %MON ad_forcing_adempmr_sd        =   4.5821495692174E+11
(PID.TID 0000.0001) %MON ad_forcing_adempmr_del2      =   1.6794015647449E+10
(PID.TID 0000.0001) %MON ad_forcing_adfu_max          =   0.0000000000000E+00
(PID.TID 0000.0001) %MON ad_forcing_adfu_min          =   0.0000000000000E+00
(PID.TID 0000.0001) %MON ad_forcing_adfu_mean         =   0.0000000000000E+00
(PID.TID 0000.0001) %MON ad_forcing_adfu_sd           =   0.0000000000000E+00
(PID.TID 0000.0001) %MON ad_forcing_adfu_del2         =   0.0000000000000E+00
(PID.TID 0000.0001) %MON ad_forcing_adfv_max          =   0.0000000000000E+00
(PID.TID 0000.0001) %MON ad_forcing_adfv_min          =   0.0000000000000E+00
(PID.TID 0000.0001) %MON ad_forcing_adfv_mean         =   0.0000000000000E+00
(PID.TID 0000.0001) %MON ad_forcing_adfv_sd           =   0.0000000000000E+00
(PID.TID 0000.0001) %MON ad_forcing_adfv_del2         =   0.0000000000000E+00
(PID.TID 0000.0001) %MON ad_advcfl_aduvel_max         =   4.2376352036094E+08
(PID.TID 0000.0001) %MON ad_advcfl_advvel_max         =   3.0386320435604E+08
(PID.TID 0000.0001) %MON ad_advcfl_adwvel_max         =   6.5190744382955E+16
(PID.TID 0000.0001) %MON ad_advcfl_adW_hf_max         =   6.5191207288149E+16
(PID.TID 0000.0001) // =======================================================
(PID.TID 0000.0001) // End MONITOR dynamic field statistics
(PID.TID 0000.0001) // =======================================================
(PID.TID 0000.0001) // =======================================================
(PID.TID 0000.0001) // Begin MONITOR adptracer field statistics
(PID.TID 0000.0001) // =======================================================
(PID.TID 0000.0001) %MON ad_trcstat_adptracer01_max   =   5.6026360062291E+10
(PID.TID 0000.0001) %MON ad_trcstat_adptracer01_min   =  -1.1281180732914E+09
(PID.TID 0000.0001) %MON ad_trcstat_adptracer01_mean  =   5.2602454470868E+08
(PID.TID 0000.0001) %MON ad_trcstat_adptracer01_sd    =   4.9706806401727E+09
(PID.TID 0000.0001) %MON ad_trcstat_adptracer01_del2  =   1.9659691556483E+07
(PID.TID 0000.0001) // =======================================================
(PID.TID 0000.0001) // End MONITOR ptracers field statistics
(PID.TID 0000.0001) // =======================================================
 cg2d: Sum(rhs),rhsMax =   8.04911692853238E-16  5.46912770262860E+03
 cg2d: Sum(rhs),rhsMax =  -1.11022302462516E-15  1.40264600356129E+01
(PID.TID 0000.0001) // =======================================================
(PID.TID 0000.0001) // Begin MONITOR dynamic field statistics
(PID.TID 0000.0001) // =======================================================
(PID.TID 0000.0001) %MON ad_time_tsnumber             =                     2
(PID.TID 0000.0001) %MON ad_time_secondsf             =   1.7280000000000E+05
(PID.TID 0000.0001) %MON ad_dynstat_adeta_max         =   8.3626688493528E+07
(PID.TID 0000.0001) %MON ad_dynstat_adeta_min         =  -5.2023255988307E+07
(PID.TID 0000.0001) %MON ad_dynstat_adeta_mean        =   2.6933774883461E+04
(PID.TID 0000.0001) %MON ad_dynstat_adeta_sd          =   4.9833313277630E+06
(PID.TID 0000.0001) %MON ad_dynstat_adeta_del2        =   2.5560182188184E+05
(PID.TID 0000.0001) %MON ad_dynstat_aduvel_max        =   4.1492452411178E+09
(PID.TID 0000.0001) %MON ad_dynstat_aduvel_min        =  -3.2286888286006E+09
(PID.TID 0000.0001) %MON ad_dynstat_aduvel_mean       =  -7.7199022024932E+06
(PID.TID 0000.0001) %MON ad_dynstat_aduvel_sd         =   1.0257600184336E+08
(PID.TID 0000.0001) %MON ad_dynstat_aduvel_del2       =   2.0850477964413E+06
(PID.TID 0000.0001) %MON ad_dynstat_advvel_max        =   4.9664734927035E+09
(PID.TID 0000.0001) %MON ad_dynstat_advvel_min        =  -5.5412318438392E+09
(PID.TID 0000.0001) %MON ad_dynstat_advvel_mean       =  -1.2879252697304E+07
(PID.TID 0000.0001) %MON ad_dynstat_advvel_sd         =   1.3426121986307E+08
(PID.TID 0000.0001) %MON ad_dynstat_advvel_del2       =   2.5027779596026E+06
(PID.TID 0000.0001) %MON ad_dynstat_adwvel_max        =   5.6905422184488E+12
(PID.TID 0000.0001) %MON ad_dynstat_adwvel_min        =  -6.6830771339901E+13
(PID.TID 0000.0001) %MON ad_dynstat_adwvel_mean       =  -6.3616935285769E+11
(PID.TID 0000.0001) %MON ad_dynstat_adwvel_sd         =   5.7974701470990E+12
(PID.TID 0000.0001) %MON ad_dynstat_adwvel_del2       =   2.2231961203847E+10
(PID.TID 0000.0001) %MON ad_dynstat_adtheta_max       =   3.6257883357901E+10
(PID.TID 0000.0001) %MON ad_dynstat_adtheta_min       =  -3.6103706842079E+10
(PID.TID 0000.0001) %MON ad_dynstat_adtheta_mean      =  -1.5284779330529E+06
(PID.TID 0000.0001) %MON ad_dynstat_adtheta_sd        =   2.7222519515032E+08
(PID.TID 0000.0001) %MON ad_dynstat_adtheta_del2      =   7.7621231164068E+06
(PID.TID 0000.0001) %MON ad_dynstat_adsalt_max        =   1.3350646944056E+11
(PID.TID 0000.0001) %MON ad_dynstat_adsalt_min        =  -1.3638228832117E+11
(PID.TID 0000.0001) %MON ad_dynstat_adsalt_mean       =  -3.0303452801690E+07
(PID.TID 0000.0001) %MON ad_dynstat_adsalt_sd         =   1.0937940315895E+09
(PID.TID 0000.0001) %MON ad_dynstat_adsalt_del2       =   2.8730622262984E+07
(PID.TID 0000.0001) %MON ad_forcing_adqnet_max        =   6.6904083343175E+04
(PID.TID 0000.0001) %MON ad_forcing_adqnet_min        =  -7.9016706804997E+06
(PID.TID 0000.0001) %MON ad_forcing_adqnet_mean       =  -7.2472850150811E+04
(PID.TID 0000.0001) %MON ad_forcing_adqnet_sd         =   3.7019851891723E+05
(PID.TID 0000.0001) %MON ad_forcing_adqnet_del2       =   1.7564480584803E+04
(PID.TID 0000.0001) %MON ad_forcing_adqsw_max         =   4.6157922641400E+05
(PID.TID 0000.0001) %MON ad_forcing_adqsw_min         =  -5.4198771904367E+02
(PID.TID 0000.0001) %MON ad_forcing_adqsw_mean        =   4.3476946466475E+03
(PID.TID 0000.0001) %MON ad_forcing_adqsw_sd          =   2.1938895709817E+04
(PID.TID 0000.0001) %MON ad_forcing_adqsw_del2        =   1.0366980963087E+03
(PID.TID 0000.0001) %MON ad_forcing_adempmr_max       =   6.9100884713528E+12
(PID.TID 0000.0001) %MON ad_forcing_adempmr_min       =  -4.8254135574380E+11
(PID.TID 0000.0001) %MON ad_forcing_adempmr_mean      =   5.6265491639918E+12
(PID.TID 0000.0001) %MON ad_forcing_adempmr_sd        =   1.2354316110589E+12
(PID.TID 0000.0001) %MON ad_forcing_adempmr_del2      =   4.4370171012169E+10
(PID.TID 0000.0001) %MON ad_forcing_adfu_max          =   3.2417036634971E+08
(PID.TID 0000.0001) %MON ad_forcing_adfu_min          =  -5.6347315122483E+07
(PID.TID 0000.0001) %MON ad_forcing_adfu_mean         =   9.0949194604363E+06
(PID.TID 0000.0001) %MON ad_forcing_adfu_sd           =   5.2791682536564E+07
(PID.TID 0000.0001) %MON ad_forcing_adfu_del2         =   2.8739555308232E+06
(PID.TID 0000.0001) %MON ad_forcing_adfv_max          =   3.2427254651445E+08
(PID.TID 0000.0001) %MON ad_forcing_adfv_min          =  -6.7411195518252E+07
(PID.TID 0000.0001) %MON ad_forcing_adfv_mean         =   1.1942952719307E+07
(PID.TID 0000.0001) %MON ad_forcing_adfv_sd           =   6.1559174834088E+07
(PID.TID 0000.0001) %MON ad_forcing_adfv_del2         =   2.9562017038949E+06
(PID.TID 0000.0001) %MON ad_advcfl_aduvel_max         =   1.6802570979261E+09
(PID.TID 0000.0001) %MON ad_advcfl_advvel_max         =   1.0765724765837E+09
(PID.TID 0000.0001) %MON ad_advcfl_adwvel_max         =   1.1548357287535E+17
(PID.TID 0000.0001) %MON ad_advcfl_adW_hf_max         =   1.1545628823431E+17
(PID.TID 0000.0001) // =======================================================
(PID.TID 0000.0001) // End MONITOR dynamic field statistics
(PID.TID 0000.0001) // =======================================================
(PID.TID 0000.0001) // =======================================================
(PID.TID 0000.0001) // Begin MONITOR adptracer field statistics
(PID.TID 0000.0001) // =======================================================
(PID.TID 0000.0001) %MON ad_trcstat_adptracer01_max   =   8.4654180613030E+10
(PID.TID 0000.0001) %MON ad_trcstat_adptracer01_min   =  -2.3982736771064E+09
(PID.TID 0000.0001) %MON ad_trcstat_adptracer01_mean  =   7.8904596890630E+08
(PID.TID 0000.0001) %MON ad_trcstat_adptracer01_sd    =   7.4481071750742E+09
(PID.TID 0000.0001) %MON ad_trcstat_adptracer01_del2  =   2.9481867172795E+07
(PID.TID 0000.0001) // =======================================================
(PID.TID 0000.0001) // End MONITOR ptracers field statistics
(PID.TID 0000.0001) // =======================================================
 cg2d: Sum(rhs),rhsMax =  -3.88578058618805E-16  9.31228335383580E+03
(PID.TID 0000.0001) SOLVE_FOR_PRESSURE: putPmEinXvector =    F
 cg2d: Sum(rhs),rhsMax =   4.57966997657877E-15  8.55254915209884E+00
(PID.TID 0000.0001) // =======================================================
(PID.TID 0000.0001) // Begin MONITOR dynamic field statistics
(PID.TID 0000.0001) // =======================================================
(PID.TID 0000.0001) %MON ad_time_tsnumber             =                     1
(PID.TID 0000.0001) %MON ad_time_secondsf             =   8.6400000000000E+04
(PID.TID 0000.0001) %MON ad_dynstat_adeta_max         =   1.6358504791511E+08
(PID.TID 0000.0001) %MON ad_dynstat_adeta_min         =  -1.3194498959036E+08
(PID.TID 0000.0001) %MON ad_dynstat_adeta_mean        =   7.7531945159227E+04
(PID.TID 0000.0001) %MON ad_dynstat_adeta_sd          =   1.3817960849826E+07
(PID.TID 0000.0001) %MON ad_dynstat_adeta_del2        =   6.0564808989608E+05
(PID.TID 0000.0001) %MON ad_dynstat_aduvel_max        =   1.0210448142309E+10
(PID.TID 0000.0001) %MON ad_dynstat_aduvel_min        =  -7.4881915084460E+09
(PID.TID 0000.0001) %MON ad_dynstat_aduvel_mean       =  -1.0984213630798E+07
(PID.TID 0000.0001) %MON ad_dynstat_aduvel_sd         =   1.8266027951242E+08
(PID.TID 0000.0001) %MON ad_dynstat_aduvel_del2       =   3.7356867174570E+06
(PID.TID 0000.0001) %MON ad_dynstat_advvel_max        =   1.3117307693733E+10
(PID.TID 0000.0001) %MON ad_dynstat_advvel_min        =  -1.3064755763572E+10
(PID.TID 0000.0001) %MON ad_dynstat_advvel_mean       =  -2.2548769872281E+07
(PID.TID 0000.0001) %MON ad_dynstat_advvel_sd         =   2.6219970410259E+08
(PID.TID 0000.0001) %MON ad_dynstat_advvel_del2       =   4.9100404832019E+06
(PID.TID 0000.0001) %MON ad_dynstat_adwvel_max        =   1.7082433778072E+13
(PID.TID 0000.0001) %MON ad_dynstat_adwvel_min        =  -9.4756103737192E+13
(PID.TID 0000.0001) %MON ad_dynstat_adwvel_mean       =  -8.8490665285509E+11
(PID.TID 0000.0001) %MON ad_dynstat_adwvel_sd         =   8.0803362339680E+12
(PID.TID 0000.0001) %MON ad_dynstat_adwvel_del2       =   3.0937981789781E+10
(PID.TID 0000.0001) %MON ad_dynstat_adtheta_max       =   4.0888245136578E+11
(PID.TID 0000.0001) %MON ad_dynstat_adtheta_min       =  -4.0747000669261E+11
(PID.TID 0000.0001) %MON ad_dynstat_adtheta_mean      =  -2.1565253325448E+06
(PID.TID 0000.0001) %MON ad_dynstat_adtheta_sd        =   1.3939276492815E+09
(PID.TID 0000.0001) %MON ad_dynstat_adtheta_del2      =   6.0724366071002E+07
(PID.TID 0000.0001) %MON ad_dynstat_adsalt_max        =   1.5043064449017E+12
(PID.TID 0000.0001) %MON ad_dynstat_adsalt_min        =  -1.5131400312939E+12
(PID.TID 0000.0001) %MON ad_dynstat_adsalt_mean       =  -5.7750067696370E+07
(PID.TID 0000.0001) %MON ad_dynstat_adsalt_sd         =   5.2139320125102E+09
(PID.TID 0000.0001) %MON ad_dynstat_adsalt_del2       =   2.2471090288668E+08
(PID.TID 0000.0001) %MON ad_forcing_adqnet_max        =   2.3894976616812E+05
(PID.TID 0000.0001) %MON ad_forcing_adqnet_min        =  -2.4291630418017E+07
(PID.TID 0000.0001) %MON ad_forcing_adqnet_mean       =  -2.5486963106720E+05
(PID.TID 0000.0001) %MON ad_forcing_adqnet_sd         =   1.2561080796582E+06
(PID.TID 0000.0001) %MON ad_forcing_adqnet_del2       =   6.2698666729411E+04
(PID.TID 0000.0001) %MON ad_forcing_adqsw_max         =   1.4423205445543E+06
(PID.TID 0000.0001) %MON ad_forcing_adqsw_min         =  -1.5170621454440E+03
(PID.TID 0000.0001) %MON ad_forcing_adqsw_mean        =   1.5384389144571E+04
(PID.TID 0000.0001) %MON ad_forcing_adqsw_sd          =   7.5035766414973E+04
(PID.TID 0000.0001) %MON ad_forcing_adqsw_del2        =   3.7386200732851E+03
(PID.TID 0000.0001) %MON ad_forcing_adempmr_max       =   1.2741598501096E+13
(PID.TID 0000.0001) %MON ad_forcing_adempmr_min       =  -5.1219411193606E+12
(PID.TID 0000.0001) %MON ad_forcing_adempmr_mean      =   1.0221501975615E+13
(PID.TID 0000.0001) %MON ad_forcing_adempmr_sd        =   2.3924014531812E+12
(PID.TID 0000.0001) %MON ad_forcing_adempmr_del2      =   8.6021280358567E+10
(PID.TID 0000.0001) %MON ad_forcing_adfu_max          =   9.7131982191917E+08
(PID.TID 0000.0001) %MON ad_forcing_adfu_min          =  -1.8476379301813E+08
(PID.TID 0000.0001) %MON ad_forcing_adfu_mean         =   1.9620859447570E+07
(PID.TID 0000.0001) %MON ad_forcing_adfu_sd           =   1.2173501856418E+08
(PID.TID 0000.0001) %MON ad_forcing_adfu_del2         =   6.5784234579104E+06
(PID.TID 0000.0001) %MON ad_forcing_adfv_max          =   7.4094194265001E+08
(PID.TID 0000.0001) %MON ad_forcing_adfv_min          =  -3.6985831293559E+08
(PID.TID 0000.0001) %MON ad_forcing_adfv_mean         =   2.1611996475203E+07
(PID.TID 0000.0001) %MON ad_forcing_adfv_sd           =   1.4186587591928E+08
(PID.TID 0000.0001) %MON ad_forcing_adfv_del2         =   6.7545614614900E+06
(PID.TID 0000.0001) %MON ad_advcfl_aduvel_max         =   3.1718902454296E+09
(PID.TID 0000.0001) %MON ad_advcfl_advvel_max         =   2.5484825085695E+09
(PID.TID 0000.0001) %MON ad_advcfl_adwvel_max         =   1.6373854725787E+17
(PID.TID 0000.0001) %MON ad_advcfl_adW_hf_max         =   1.6373854725787E+17
(PID.TID 0000.0001) // =======================================================
(PID.TID 0000.0001) // End MONITOR dynamic field statistics
(PID.TID 0000.0001) // =======================================================
(PID.TID 0000.0001) // =======================================================
(PID.TID 0000.0001) // Begin MONITOR adptracer field statistics
(PID.TID 0000.0001) // =======================================================
(PID.TID 0000.0001) %MON ad_trcstat_adptracer01_max   =   1.1215141297592E+11
(PID.TID 0000.0001) %MON ad_trcstat_adptracer01_min   =  -3.2192164679393E+09
(PID.TID 0000.0001) %MON ad_trcstat_adptracer01_mean  =   1.0520757469347E+09
(PID.TID 0000.0001) %MON ad_trcstat_adptracer01_sd    =   9.9207907616777E+09
(PID.TID 0000.0001) %MON ad_trcstat_adptracer01_del2  =   3.9295611089144E+07
(PID.TID 0000.0001) // =======================================================
(PID.TID 0000.0001) // End MONITOR ptracers field statistics
(PID.TID 0000.0001) // =======================================================
 cg2d: Sum(rhs),rhsMax =   1.22124532708767E-15  1.32951828245673E+04
(PID.TID 0000.0001) Start initial hydrostatic pressure computation
(PID.TID 0000.0001) Pressure is predetermined for buoyancyRelation OCEANIC
(PID.TID 0000.0001) 
(PID.TID 0000.0001) // =======================================================
(PID.TID 0000.0001) // Begin MONITOR dynamic field statistics
(PID.TID 0000.0001) // =======================================================
(PID.TID 0000.0001) %MON ad_time_tsnumber             =                     0
(PID.TID 0000.0001) %MON ad_time_secondsf             =   0.0000000000000E+00
(PID.TID 0000.0001) %MON ad_dynstat_adeta_max         =   3.5226005673473E+08
(PID.TID 0000.0001) %MON ad_dynstat_adeta_min         =  -2.5805922025362E+08
(PID.TID 0000.0001) %MON ad_dynstat_adeta_mean        =   1.4856350064768E+05
(PID.TID 0000.0001) %MON ad_dynstat_adeta_sd          =   2.7284082091891E+07
(PID.TID 0000.0001) %MON ad_dynstat_adeta_del2        =   1.1265518447201E+06
(PID.TID 0000.0001) %MON ad_dynstat_aduvel_max        =   2.5626571492829E+10
(PID.TID 0000.0001) %MON ad_dynstat_aduvel_min        =  -2.8673534793606E+10
(PID.TID 0000.0001) %MON ad_dynstat_aduvel_mean       =  -1.2874420321113E+07
(PID.TID 0000.0001) %MON ad_dynstat_aduvel_sd         =   2.8682279926129E+08
(PID.TID 0000.0001) %MON ad_dynstat_aduvel_del2       =   7.2638521810815E+06
(PID.TID 0000.0001) %MON ad_dynstat_advvel_max        =   9.6242999553314E+10
(PID.TID 0000.0001) %MON ad_dynstat_advvel_min        =  -8.7660097989262E+10
(PID.TID 0000.0001) %MON ad_dynstat_advvel_mean       =  -3.3872063731548E+07
(PID.TID 0000.0001) %MON ad_dynstat_advvel_sd         =   5.4918363889955E+08
(PID.TID 0000.0001) %MON ad_dynstat_advvel_del2       =   1.7473756757987E+07
(PID.TID 0000.0001) %MON ad_dynstat_adwvel_max        =   2.1268976834406E+13
(PID.TID 0000.0001) %MON ad_dynstat_adwvel_min        =  -1.4143993441550E+14
(PID.TID 0000.0001) %MON ad_dynstat_adwvel_mean       =  -5.4375793003588E+11
(PID.TID 0000.0001) %MON ad_dynstat_adwvel_sd         =   4.9867910519879E+12
(PID.TID 0000.0001) %MON ad_dynstat_adwvel_del2       =   2.3763314304981E+10
(PID.TID 0000.0001) %MON ad_dynstat_adtheta_max       =   3.7489825905190E+11
(PID.TID 0000.0001) %MON ad_dynstat_adtheta_min       =  -3.5139930620880E+11
(PID.TID 0000.0001) %MON ad_dynstat_adtheta_mean      =  -1.7169698688676E+06
(PID.TID 0000.0001) %MON ad_dynstat_adtheta_sd        =   1.6730768986305E+09
(PID.TID 0000.0001) %MON ad_dynstat_adtheta_del2      =   7.0646521456291E+07
(PID.TID 0000.0001) %MON ad_dynstat_adsalt_max        =   1.2957377201742E+12
(PID.TID 0000.0001) %MON ad_dynstat_adsalt_min        =  -1.3873835303466E+12
(PID.TID 0000.0001) %MON ad_dynstat_adsalt_mean       =  -7.7073347436055E+07
(PID.TID 0000.0001) %MON ad_dynstat_adsalt_sd         =   6.2790166333135E+09
(PID.TID 0000.0001) %MON ad_dynstat_adsalt_del2       =   2.6130231865270E+08
(PID.TID 0000.0001) %MON ad_forcing_adqnet_max        =   1.7169275161468E+08
(PID.TID 0000.0001) %MON ad_forcing_adqnet_min        =  -4.4579216814044E+07
(PID.TID 0000.0001) %MON ad_forcing_adqnet_mean       =  -3.7504047031481E+05
(PID.TID 0000.0001) %MON ad_forcing_adqnet_sd         =   4.1637442467048E+06
(PID.TID 0000.0001) %MON ad_forcing_adqnet_del2       =   3.3302581747458E+05
(PID.TID 0000.0001) %MON ad_forcing_adqsw_max         =   2.6617044390766E+06
(PID.TID 0000.0001) %MON ad_forcing_adqsw_min         =  -1.0223820355076E+07
(PID.TID 0000.0001) %MON ad_forcing_adqsw_mean        =   2.2802989640096E+04
(PID.TID 0000.0001) %MON ad_forcing_adqsw_sd          =   2.4842874230124E+05
(PID.TID 0000.0001) %MON ad_forcing_adqsw_del2        =   1.9843128091880E+04
(PID.TID 0000.0001) %MON ad_forcing_adempmr_max       =   9.7513551822497E+13
(PID.TID 0000.0001) %MON ad_forcing_adempmr_min       =  -1.3817562048143E+13
(PID.TID 0000.0001) %MON ad_forcing_adempmr_mean      =   1.2946276891403E+13
(PID.TID 0000.0001) %MON ad_forcing_adempmr_sd        =   3.6454908140620E+12
(PID.TID 0000.0001) %MON ad_forcing_adempmr_del2      =   1.9902401171410E+11
(PID.TID 0000.0001) %MON ad_forcing_adfu_max          =   1.5717911023094E+09
(PID.TID 0000.0001) %MON ad_forcing_adfu_min          =  -5.6533322530164E+08
(PID.TID 0000.0001) %MON ad_forcing_adfu_mean         =  -2.1008463817721E+06
(PID.TID 0000.0001) %MON ad_forcing_adfu_sd           =   5.9806552585700E+07
(PID.TID 0000.0001) %MON ad_forcing_adfu_del2         =   2.5770396526268E+06
(PID.TID 0000.0001) %MON ad_forcing_adfv_max          =   5.2260557230852E+08
(PID.TID 0000.0001) %MON ad_forcing_adfv_min          =  -8.1104444848659E+08
(PID.TID 0000.0001) %MON ad_forcing_adfv_mean         =  -1.4809269143230E+07
(PID.TID 0000.0001) %MON ad_forcing_adfv_sd           =   6.6538693931840E+07
(PID.TID 0000.0001) %MON ad_forcing_adfv_del2         =   2.4360001426271E+06
(PID.TID 0000.0001) %MON ad_advcfl_aduvel_max         =   8.0194930041752E+09
(PID.TID 0000.0001) %MON ad_advcfl_advvel_max         =   1.8698471261071E+10
(PID.TID 0000.0001) %MON ad_advcfl_adwvel_max         =   2.3276972063809E+17
(PID.TID 0000.0001) %MON ad_advcfl_adW_hf_max         =   2.4440820666999E+17
(PID.TID 0000.0001) // =======================================================
(PID.TID 0000.0001) // End MONITOR dynamic field statistics
(PID.TID 0000.0001) // =======================================================
(PID.TID 0000.0001) // =======================================================
(PID.TID 0000.0001) // Begin MONITOR adptracer field statistics
(PID.TID 0000.0001) // =======================================================
(PID.TID 0000.0001) %MON ad_trcstat_adptracer01_max   =   1.1203960712874E+11
(PID.TID 0000.0001) %MON ad_trcstat_adptracer01_min   =  -3.0905212478883E+09
(PID.TID 0000.0001) %MON ad_trcstat_adptracer01_mean  =   1.0521562089977E+09
(PID.TID 0000.0001) %MON ad_trcstat_adptracer01_sd    =   9.9017670916958E+09
(PID.TID 0000.0001) %MON ad_trcstat_adptracer01_del2  =   3.9369496058870E+07
(PID.TID 0000.0001) // =======================================================
(PID.TID 0000.0001) // End MONITOR ptracers field statistics
(PID.TID 0000.0001) // =======================================================
 ph-check entering grdchk_main 
 ph-check fcref =    184108540617619.56     
grad-res -------------------------------
 grad-res  proc    #    i    j    k   bi   bj iobc               fc ref           fc + eps           fc - eps
 grad-res  proc    #    i    j    k   bi   bj iobc             adj grad            fd grad         1 - fd/adj
 grad-res exact position met: 
 grad-res     0 1881   15    5    4    1    1
 ph-test icomp, ncvarcomp, ichknum         1881       37994           1
 ph-grd _loc: bi, bj, icomptest, ichknum            1           1           0           1
 ph-grd _loc: bi, bj, icomptest, ichknum            1           1         616           1
 ph-grd _loc: bi, bj, icomptest, ichknum            1           1        1232           1
 ph-grd _loc: bi, bj, icomptest, ichknum            1           1        1848           1
 ph-grd -->hit<--           15           5           4           1
(PID.TID 0000.0001) INI_CG2D: CG2D normalisation factor =  8.8319877372200804E-05
(PID.TID 0000.0001) 
(PID.TID 0000.0001) Start initial hydrostatic pressure computation
(PID.TID 0000.0001) Pressure is predetermined for buoyancyRelation OCEANIC
(PID.TID 0000.0001) 
(PID.TID 0000.0001) // =======================================================
(PID.TID 0000.0001) // Model current state
(PID.TID 0000.0001) // =======================================================
(PID.TID 0000.0001) 
(PID.TID 0000.0001) SOLVE_FOR_PRESSURE: putPmEinXvector =    F
 cg2d: Sum(rhs),rhsMax =   4.57966997657877E-15  8.55254915209884E+00
 cg2d: Sum(rhs),rhsMax =  -6.43929354282591E-15  1.40264600356129E+01
 cg2d: Sum(rhs),rhsMax =   1.22124532708767E-15  1.48617698101369E+01
 cg2d: Sum(rhs),rhsMax =   5.77315972805081E-15  1.35262297106097E+01
(PID.TID 0000.0001) Did not write pickup because writePickupAtEnd = FALSE
 --> objf_test(bi,bj)   =  0.000000000000000D+00
 --> objf_tracer(bi,bj) =  0.513256884475842D+14
 --> objf_atl(bi,bj)    =  0.000000000000000D+00
 --> objf_test(bi,bj)   =  0.000000000000000D+00
 --> objf_tracer(bi,bj) =  0.579144301174172D+14
 --> objf_atl(bi,bj)    =  0.000000000000000D+00
 --> objf_test(bi,bj)   =  0.000000000000000D+00
 --> objf_tracer(bi,bj) =  0.267030679864166D+14
 --> objf_atl(bi,bj)    =  0.000000000000000D+00
 --> objf_test(bi,bj)   =  0.000000000000000D+00
 --> objf_tracer(bi,bj) =  0.481653540628240D+14
 --> objf_atl(bi,bj)    =  0.000000000000000D+00
  local fc =  0.184108540614242D+15
 global fc =  0.184108540614242D+15
 ph-check fcpertplus =    184108540614242.03     
 ph-check fcpertminus =    184108540617619.56     
(PID.TID 0000.0001) INI_CG2D: CG2D normalisation factor =  8.8319877372200804E-05
(PID.TID 0000.0001) 
(PID.TID 0000.0001) Start initial hydrostatic pressure computation
(PID.TID 0000.0001) Pressure is predetermined for buoyancyRelation OCEANIC
(PID.TID 0000.0001) 
(PID.TID 0000.0001) // =======================================================
(PID.TID 0000.0001) // Model current state
(PID.TID 0000.0001) // =======================================================
(PID.TID 0000.0001) 
(PID.TID 0000.0001) SOLVE_FOR_PRESSURE: putPmEinXvector =    F
 cg2d: Sum(rhs),rhsMax =   4.57966997657877E-15  8.55254915209884E+00
 cg2d: Sum(rhs),rhsMax =  -6.43929354282591E-15  1.40264600356129E+01
 cg2d: Sum(rhs),rhsMax =   1.22124532708767E-15  1.48617698101369E+01
 cg2d: Sum(rhs),rhsMax =   5.77315972805081E-15  1.35262297106097E+01
(PID.TID 0000.0001) Did not write pickup because writePickupAtEnd = FALSE
 --> objf_test(bi,bj)   =  0.000000000000000D+00
 --> objf_tracer(bi,bj) =  0.513256884543392D+14
 --> objf_atl(bi,bj)    =  0.000000000000000D+00
 --> objf_test(bi,bj)   =  0.000000000000000D+00
 --> objf_tracer(bi,bj) =  0.579144301174172D+14
 --> objf_atl(bi,bj)    =  0.000000000000000D+00
 --> objf_test(bi,bj)   =  0.000000000000000D+00
 --> objf_tracer(bi,bj) =  0.267030679864166D+14
 --> objf_atl(bi,bj)    =  0.000000000000000D+00
 --> objf_test(bi,bj)   =  0.000000000000000D+00
 --> objf_tracer(bi,bj) =  0.481653540628240D+14
 --> objf_atl(bi,bj)    =  0.000000000000000D+00
  local fc =  0.184108540620997D+15
 global fc =  0.184108540620997D+15
grad-res -------------------------------
 grad-res     0    1   15    5    4    1    1    1   1.84108540618E+14  1.84108540614E+14  1.84108540621E+14
 grad-res     0    1    1 1881    0    1    1    1  -3.37752686595E+07 -3.37751562500E+07  3.32815871174E-06
(PID.TID 0000.0001)  ADM  ref_cost_function      =  1.84108540617620E+14
(PID.TID 0000.0001)  ADM  adjoint_gradient       = -3.37752686594546E+07
(PID.TID 0000.0001)  ADM  finite-diff_grad       = -3.37751562500000E+07
 ph-grd  ierr ---------------------------
 ph-grd  ierr =            0 , icomp =         1881 , ichknum =            1
 ph-test icomp, ncvarcomp, ichknum         1882       37994           2
 ph-grd _loc: bi, bj, icomptest, ichknum            1           1        1881           2
 ph-grd -->hit<--           16           5           4           1
(PID.TID 0000.0001) INI_CG2D: CG2D normalisation factor =  8.8319877372200804E-05
(PID.TID 0000.0001) 
(PID.TID 0000.0001) Start initial hydrostatic pressure computation
(PID.TID 0000.0001) Pressure is predetermined for buoyancyRelation OCEANIC
(PID.TID 0000.0001) 
(PID.TID 0000.0001) // =======================================================
(PID.TID 0000.0001) // Model current state
(PID.TID 0000.0001) // =======================================================
(PID.TID 0000.0001) 
(PID.TID 0000.0001) SOLVE_FOR_PRESSURE: putPmEinXvector =    F
 cg2d: Sum(rhs),rhsMax =   4.57966997657877E-15  8.55254915209884E+00
 cg2d: Sum(rhs),rhsMax =  -6.43929354282591E-15  1.40264600356129E+01
 cg2d: Sum(rhs),rhsMax =   1.22124532708767E-15  1.48617698101369E+01
 cg2d: Sum(rhs),rhsMax =   5.77315972805081E-15  1.35262297106097E+01
(PID.TID 0000.0001) Did not write pickup because writePickupAtEnd = FALSE
 --> objf_test(bi,bj)   =  0.000000000000000D+00
 --> objf_tracer(bi,bj) =  0.513256884488146D+14
 --> objf_atl(bi,bj)    =  0.000000000000000D+00
 --> objf_test(bi,bj)   =  0.000000000000000D+00
 --> objf_tracer(bi,bj) =  0.579144301174172D+14
 --> objf_atl(bi,bj)    =  0.000000000000000D+00
 --> objf_test(bi,bj)   =  0.000000000000000D+00
 --> objf_tracer(bi,bj) =  0.267030679864166D+14
 --> objf_atl(bi,bj)    =  0.000000000000000D+00
 --> objf_test(bi,bj)   =  0.000000000000000D+00
 --> objf_tracer(bi,bj) =  0.481653540628240D+14
 --> objf_atl(bi,bj)    =  0.000000000000000D+00
  local fc =  0.184108540615472D+15
 global fc =  0.184108540615472D+15
 ph-check fcpertplus =    184108540615472.41     
 ph-check fcpertminus =    184108540617619.56     
(PID.TID 0000.0001) INI_CG2D: CG2D normalisation factor =  8.8319877372200804E-05
(PID.TID 0000.0001) 
(PID.TID 0000.0001) Start initial hydrostatic pressure computation
(PID.TID 0000.0001) Pressure is predetermined for buoyancyRelation OCEANIC
(PID.TID 0000.0001) 
(PID.TID 0000.0001) // =======================================================
(PID.TID 0000.0001) // Model current state
(PID.TID 0000.0001) // =======================================================
(PID.TID 0000.0001) 
(PID.TID 0000.0001) SOLVE_FOR_PRESSURE: putPmEinXvector =    F
 cg2d: Sum(rhs),rhsMax =   4.57966997657877E-15  8.55254915209884E+00
 cg2d: Sum(rhs),rhsMax =  -6.43929354282591E-15  1.40264600356129E+01
 cg2d: Sum(rhs),rhsMax =   1.22124532708767E-15  1.48617698101369E+01
 cg2d: Sum(rhs),rhsMax =   5.77315972805081E-15  1.35262297106097E+01
(PID.TID 0000.0001) Did not write pickup because writePickupAtEnd = FALSE
 --> objf_test(bi,bj)   =  0.000000000000000D+00
 --> objf_tracer(bi,bj) =  0.513256884531089D+14
 --> objf_atl(bi,bj)    =  0.000000000000000D+00
 --> objf_test(bi,bj)   =  0.000000000000000D+00
 --> objf_tracer(bi,bj) =  0.579144301174172D+14
 --> objf_atl(bi,bj)    =  0.000000000000000D+00
 --> objf_test(bi,bj)   =  0.000000000000000D+00
 --> objf_tracer(bi,bj) =  0.267030679864166D+14
 --> objf_atl(bi,bj)    =  0.000000000000000D+00
 --> objf_test(bi,bj)   =  0.000000000000000D+00
 --> objf_tracer(bi,bj) =  0.481653540628240D+14
 --> objf_atl(bi,bj)    =  0.000000000000000D+00
  local fc =  0.184108540619767D+15
 global fc =  0.184108540619767D+15
grad-res -------------------------------
 grad-res     0    2   16    5    4    1    1    1   1.84108540618E+14  1.84108540615E+14  1.84108540620E+14
 grad-res     0    2    2 1882    0    1    1    1  -2.14715429679E+07 -2.14715625000E+07 -9.09675613281E-07
(PID.TID 0000.0001)  ADM  ref_cost_function      =  1.84108540617620E+14
(PID.TID 0000.0001)  ADM  adjoint_gradient       = -2.14715429678610E+07
(PID.TID 0000.0001)  ADM  finite-diff_grad       = -2.14715625000000E+07
 ph-grd  ierr ---------------------------
 ph-grd  ierr =            0 , icomp =         1882 , ichknum =            2
 ph-test icomp, ncvarcomp, ichknum         1883       37994           3
 ph-grd _loc: bi, bj, icomptest, ichknum            1           1        1882           3
 ph-grd -->hit<--           17           5           4           1
(PID.TID 0000.0001) INI_CG2D: CG2D normalisation factor =  8.8319877372200804E-05
(PID.TID 0000.0001) 
(PID.TID 0000.0001) Start initial hydrostatic pressure computation
(PID.TID 0000.0001) Pressure is predetermined for buoyancyRelation OCEANIC
(PID.TID 0000.0001) 
(PID.TID 0000.0001) // =======================================================
(PID.TID 0000.0001) // Model current state
(PID.TID 0000.0001) // =======================================================
(PID.TID 0000.0001) 
(PID.TID 0000.0001) SOLVE_FOR_PRESSURE: putPmEinXvector =    F
 cg2d: Sum(rhs),rhsMax =   4.57966997657877E-15  8.55254915209884E+00
 cg2d: Sum(rhs),rhsMax =  -6.43929354282591E-15  1.40264600356129E+01
 cg2d: Sum(rhs),rhsMax =   1.22124532708767E-15  1.48617698101369E+01
 cg2d: Sum(rhs),rhsMax =   5.77315972805081E-15  1.35262297106097E+01
(PID.TID 0000.0001) Did not write pickup because writePickupAtEnd = FALSE
 --> objf_test(bi,bj)   =  0.000000000000000D+00
 --> objf_tracer(bi,bj) =  0.513256884464265D+14
 --> objf_atl(bi,bj)    =  0.000000000000000D+00
 --> objf_test(bi,bj)   =  0.000000000000000D+00
 --> objf_tracer(bi,bj) =  0.579144301174172D+14
 --> objf_atl(bi,bj)    =  0.000000000000000D+00
 --> objf_test(bi,bj)   =  0.000000000000000D+00
 --> objf_tracer(bi,bj) =  0.267030679864166D+14
 --> objf_atl(bi,bj)    =  0.000000000000000D+00
 --> objf_test(bi,bj)   =  0.000000000000000D+00
 --> objf_tracer(bi,bj) =  0.481653540628240D+14
 --> objf_atl(bi,bj)    =  0.000000000000000D+00
  local fc =  0.184108540613084D+15
 global fc =  0.184108540613084D+15
 ph-check fcpertplus =    184108540613084.28     
 ph-check fcpertminus =    184108540617619.56     
(PID.TID 0000.0001) INI_CG2D: CG2D normalisation factor =  8.8319877372200804E-05
(PID.TID 0000.0001) 
(PID.TID 0000.0001) Start initial hydrostatic pressure computation
(PID.TID 0000.0001) Pressure is predetermined for buoyancyRelation OCEANIC
(PID.TID 0000.0001) 
(PID.TID 0000.0001) // =======================================================
(PID.TID 0000.0001) // Model current state
(PID.TID 0000.0001) // =======================================================
(PID.TID 0000.0001) 
(PID.TID 0000.0001) SOLVE_FOR_PRESSURE: putPmEinXvector =    F
 cg2d: Sum(rhs),rhsMax =   4.57966997657877E-15  8.55254915209884E+00
 cg2d: Sum(rhs),rhsMax =  -6.43929354282591E-15  1.40264600356129E+01
 cg2d: Sum(rhs),rhsMax =   1.22124532708767E-15  1.48617698101369E+01
 cg2d: Sum(rhs),rhsMax =   5.77315972805081E-15  1.35262297106097E+01
(PID.TID 0000.0001) Did not write pickup because writePickupAtEnd = FALSE
 --> objf_test(bi,bj)   =  0.000000000000000D+00
 --> objf_tracer(bi,bj) =  0.513256884554970D+14
 --> objf_atl(bi,bj)    =  0.000000000000000D+00
 --> objf_test(bi,bj)   =  0.000000000000000D+00
 --> objf_tracer(bi,bj) =  0.579144301174172D+14
 --> objf_atl(bi,bj)    =  0.000000000000000D+00
 --> objf_test(bi,bj)   =  0.000000000000000D+00
 --> objf_tracer(bi,bj) =  0.267030679864166D+14
 --> objf_atl(bi,bj)    =  0.000000000000000D+00
 --> objf_test(bi,bj)   =  0.000000000000000D+00
 --> objf_tracer(bi,bj) =  0.481653540628240D+14
 --> objf_atl(bi,bj)    =  0.000000000000000D+00
  local fc =  0.184108540622155D+15
 global fc =  0.184108540622155D+15
grad-res -------------------------------
 grad-res     0    3   17    5    4    1    1    1   1.84108540618E+14  1.84108540613E+14  1.84108540622E+14
 grad-res     0    3    3 1883    0    1    1    1  -4.53527718657E+07 -4.53526562500E+07  2.54925226373E-06
(PID.TID 0000.0001)  ADM  ref_cost_function      =  1.84108540617620E+14
(PID.TID 0000.0001)  ADM  adjoint_gradient       = -4.53527718656563E+07
(PID.TID 0000.0001)  ADM  finite-diff_grad       = -4.53526562500000E+07
 ph-grd  ierr ---------------------------
 ph-grd  ierr =            0 , icomp =         1883 , ichknum =            3
 ph-test icomp, ncvarcomp, ichknum         1884       37994           4
 ph-grd _loc: bi, bj, icomptest, ichknum            1           1        1883           4
 ph-grd -->hit<--           18           5           4           1
(PID.TID 0000.0001) INI_CG2D: CG2D normalisation factor =  8.8319877372200804E-05
(PID.TID 0000.0001) 
(PID.TID 0000.0001) Start initial hydrostatic pressure computation
(PID.TID 0000.0001) Pressure is predetermined for buoyancyRelation OCEANIC
(PID.TID 0000.0001) 
(PID.TID 0000.0001) // =======================================================
(PID.TID 0000.0001) // Model current state
(PID.TID 0000.0001) // =======================================================
(PID.TID 0000.0001) 
(PID.TID 0000.0001) SOLVE_FOR_PRESSURE: putPmEinXvector =    F
 cg2d: Sum(rhs),rhsMax =   4.57966997657877E-15  8.55254915209884E+00
 cg2d: Sum(rhs),rhsMax =  -6.43929354282591E-15  1.40264600356129E+01
 cg2d: Sum(rhs),rhsMax =   1.22124532708767E-15  1.48617698101369E+01
 cg2d: Sum(rhs),rhsMax =   5.77315972805081E-15  1.35262297106097E+01
(PID.TID 0000.0001) Did not write pickup because writePickupAtEnd = FALSE
 --> objf_test(bi,bj)   =  0.000000000000000D+00
 --> objf_tracer(bi,bj) =  0.513256884478506D+14
 --> objf_atl(bi,bj)    =  0.000000000000000D+00
 --> objf_test(bi,bj)   =  0.000000000000000D+00
 --> objf_tracer(bi,bj) =  0.579144301174172D+14
 --> objf_atl(bi,bj)    =  0.000000000000000D+00
 --> objf_test(bi,bj)   =  0.000000000000000D+00
 --> objf_tracer(bi,bj) =  0.267030679864166D+14
 --> objf_atl(bi,bj)    =  0.000000000000000D+00
 --> objf_test(bi,bj)   =  0.000000000000000D+00
 --> objf_tracer(bi,bj) =  0.481653540628240D+14
 --> objf_atl(bi,bj)    =  0.000000000000000D+00
  local fc =  0.184108540614508D+15
 global fc =  0.184108540614508D+15
 ph-check fcpertplus =    184108540614508.47     
 ph-check fcpertminus =    184108540617619.56     
(PID.TID 0000.0001) INI_CG2D: CG2D normalisation factor =  8.8319877372200804E-05
(PID.TID 0000.0001) 
(PID.TID 0000.0001) Start initial hydrostatic pressure computation
(PID.TID 0000.0001) Pressure is predetermined for buoyancyRelation OCEANIC
(PID.TID 0000.0001) 
(PID.TID 0000.0001) // =======================================================
(PID.TID 0000.0001) // Model current state
(PID.TID 0000.0001) // =======================================================
(PID.TID 0000.0001) 
(PID.TID 0000.0001) SOLVE_FOR_PRESSURE: putPmEinXvector =    F
 cg2d: Sum(rhs),rhsMax =   4.57966997657877E-15  8.55254915209884E+00
 cg2d: Sum(rhs),rhsMax =  -6.43929354282591E-15  1.40264600356129E+01
 cg2d: Sum(rhs),rhsMax =   1.22124532708767E-15  1.48617698101369E+01
 cg2d: Sum(rhs),rhsMax =   5.77315972805081E-15  1.35262297106097E+01
(PID.TID 0000.0001) Did not write pickup because writePickupAtEnd = FALSE
 --> objf_test(bi,bj)   =  0.000000000000000D+00
 --> objf_tracer(bi,bj) =  0.513256884540728D+14
 --> objf_atl(bi,bj)    =  0.000000000000000D+00
 --> objf_test(bi,bj)   =  0.000000000000000D+00
 --> objf_tracer(bi,bj) =  0.579144301174172D+14
 --> objf_atl(bi,bj)    =  0.000000000000000D+00
 --> objf_test(bi,bj)   =  0.000000000000000D+00
 --> objf_tracer(bi,bj) =  0.267030679864166D+14
 --> objf_atl(bi,bj)    =  0.000000000000000D+00
 --> objf_test(bi,bj)   =  0.000000000000000D+00
 --> objf_tracer(bi,bj) =  0.481653540628240D+14
 --> objf_atl(bi,bj)    =  0.000000000000000D+00
  local fc =  0.184108540620731D+15
 global fc =  0.184108540620731D+15
grad-res -------------------------------
 grad-res     0    4   18    5    4    1    1    1   1.84108540618E+14  1.84108540615E+14  1.84108540621E+14
 grad-res     0    4    4 1884    0    1    1    1  -3.11107900242E+07 -3.11107812500E+07  2.82031260457E-07
(PID.TID 0000.0001)  ADM  ref_cost_function      =  1.84108540617620E+14
(PID.TID 0000.0001)  ADM  adjoint_gradient       = -3.11107900242153E+07
(PID.TID 0000.0001)  ADM  finite-diff_grad       = -3.11107812500000E+07
 ph-grd  ierr ---------------------------
 ph-grd  ierr =            0 , icomp =         1884 , ichknum =            4
 ph-test icomp, ncvarcomp, ichknum         1885       37994           5
 ph-grd _loc: bi, bj, icomptest, ichknum            1           1        1884           5
 ph-grd -->hit<--           19           5           4           1
(PID.TID 0000.0001) INI_CG2D: CG2D normalisation factor =  8.8319877372200804E-05
(PID.TID 0000.0001) 
(PID.TID 0000.0001) Start initial hydrostatic pressure computation
(PID.TID 0000.0001) Pressure is predetermined for buoyancyRelation OCEANIC
(PID.TID 0000.0001) 
(PID.TID 0000.0001) // =======================================================
(PID.TID 0000.0001) // Model current state
(PID.TID 0000.0001) // =======================================================
(PID.TID 0000.0001) 
(PID.TID 0000.0001) SOLVE_FOR_PRESSURE: putPmEinXvector =    F
 cg2d: Sum(rhs),rhsMax =   4.57966997657877E-15  8.55254915209884E+00
 cg2d: Sum(rhs),rhsMax =  -6.43929354282591E-15  1.40264600356129E+01
 cg2d: Sum(rhs),rhsMax =   1.22124532708767E-15  1.48617698101369E+01
 cg2d: Sum(rhs),rhsMax =   5.77315972805081E-15  1.35262297106097E+01
(PID.TID 0000.0001) Did not write pickup because writePickupAtEnd = FALSE
 --> objf_test(bi,bj)   =  0.000000000000000D+00
 --> objf_tracer(bi,bj) =  0.513256884473068D+14
 --> objf_atl(bi,bj)    =  0.000000000000000D+00
 --> objf_test(bi,bj)   =  0.000000000000000D+00
 --> objf_tracer(bi,bj) =  0.579144301174172D+14
 --> objf_atl(bi,bj)    =  0.000000000000000D+00
 --> objf_test(bi,bj)   =  0.000000000000000D+00
 --> objf_tracer(bi,bj) =  0.267030679864166D+14
 --> objf_atl(bi,bj)    =  0.000000000000000D+00
 --> objf_test(bi,bj)   =  0.000000000000000D+00
 --> objf_tracer(bi,bj) =  0.481653540628240D+14
 --> objf_atl(bi,bj)    =  0.000000000000000D+00
  local fc =  0.184108540613965D+15
 global fc =  0.184108540613965D+15
 ph-check fcpertplus =    184108540613964.63     
 ph-check fcpertminus =    184108540617619.56     
(PID.TID 0000.0001) INI_CG2D: CG2D normalisation factor =  8.8319877372200804E-05
(PID.TID 0000.0001) 
(PID.TID 0000.0001) Start initial hydrostatic pressure computation
(PID.TID 0000.0001) Pressure is predetermined for buoyancyRelation OCEANIC
(PID.TID 0000.0001) 
(PID.TID 0000.0001) // =======================================================
(PID.TID 0000.0001) // Model current state
(PID.TID 0000.0001) // =======================================================
(PID.TID 0000.0001) 
(PID.TID 0000.0001) SOLVE_FOR_PRESSURE: putPmEinXvector =    F
 cg2d: Sum(rhs),rhsMax =   4.57966997657877E-15  8.55254915209884E+00
 cg2d: Sum(rhs),rhsMax =  -6.43929354282591E-15  1.40264600356129E+01
 cg2d: Sum(rhs),rhsMax =   1.22124532708767E-15  1.48617698101369E+01
 cg2d: Sum(rhs),rhsMax =   5.77315972805081E-15  1.35262297106097E+01
(PID.TID 0000.0001) Did not write pickup because writePickupAtEnd = FALSE
 --> objf_test(bi,bj)   =  0.000000000000000D+00
 --> objf_tracer(bi,bj) =  0.513256884546167D+14
 --> objf_atl(bi,bj)    =  0.000000000000000D+00
 --> objf_test(bi,bj)   =  0.000000000000000D+00
 --> objf_tracer(bi,bj) =  0.579144301174172D+14
 --> objf_atl(bi,bj)    =  0.000000000000000D+00
 --> objf_test(bi,bj)   =  0.000000000000000D+00
 --> objf_tracer(bi,bj) =  0.267030679864166D+14
 --> objf_atl(bi,bj)    =  0.000000000000000D+00
 --> objf_test(bi,bj)   =  0.000000000000000D+00
 --> objf_tracer(bi,bj) =  0.481653540628240D+14
 --> objf_atl(bi,bj)    =  0.000000000000000D+00
  local fc =  0.184108540621274D+15
 global fc =  0.184108540621274D+15
grad-res -------------------------------
 grad-res     0    5   19    5    4    1    1    1   1.84108540618E+14  1.84108540614E+14  1.84108540621E+14
 grad-res     0    5    5 1885    0    1    1    1  -3.65493439491E+07 -3.65493750000E+07 -8.49560762850E-07
(PID.TID 0000.0001)  ADM  ref_cost_function      =  1.84108540617620E+14
(PID.TID 0000.0001)  ADM  adjoint_gradient       = -3.65493439491115E+07
(PID.TID 0000.0001)  ADM  finite-diff_grad       = -3.65493750000000E+07
 ph-grd  ierr ---------------------------
 ph-grd  ierr =            0 , icomp =         1885 , ichknum =            5
(PID.TID 0000.0001) 
(PID.TID 0000.0001) // =======================================================
(PID.TID 0000.0001) // Gradient check results  >>> START <<<
(PID.TID 0000.0001) // =======================================================
(PID.TID 0000.0001) 
(PID.TID 0000.0001)  EPS =   1.000000E-04
(PID.TID 0000.0001) 
(PID.TID 0000.0001) grdchk output h.p:  Id Itile Jtile LAYER   bi   bj   X(Id)           X(Id)+/-EPS
(PID.TID 0000.0001) grdchk output h.c:  Id  FC                   FC1                  FC2
(PID.TID 0000.0001) grdchk output h.g:  Id     FC1-FC2/(2*EPS)      ADJ GRAD(FC)         1-FDGRD/ADGRD
(PID.TID 0000.0001) 
(PID.TID 0000.0001) grdchk output (p):   1    15     5     4    1    1   0.000000000E+00 -1.000000000E-04
(PID.TID 0000.0001) grdchk output (c):   1  1.8410854061762E+14  1.8410854061424E+14  1.8410854062100E+14
(PID.TID 0000.0001) grdchk output (g):   1    -3.3775156250000E+07 -3.3775268659455E+07  3.3281587117351E-06
(PID.TID 0000.0001) 
(PID.TID 0000.0001) grdchk output (p):   2    16     5     4    1    1   0.000000000E+00 -1.000000000E-04
(PID.TID 0000.0001) grdchk output (c):   2  1.8410854061762E+14  1.8410854061547E+14  1.8410854061977E+14
(PID.TID 0000.0001) grdchk output (g):   2    -2.1471562500000E+07 -2.1471542967861E+07 -9.0967561328092E-07
(PID.TID 0000.0001) 
(PID.TID 0000.0001) grdchk output (p):   3    17     5     4    1    1   0.000000000E+00 -1.000000000E-04
(PID.TID 0000.0001) grdchk output (c):   3  1.8410854061762E+14  1.8410854061308E+14  1.8410854062215E+14
(PID.TID 0000.0001) grdchk output (g):   3    -4.5352656250000E+07 -4.5352771865656E+07  2.5492522637283E-06
(PID.TID 0000.0001) 
(PID.TID 0000.0001) grdchk output (p):   4    18     5     4    1    1   0.000000000E+00 -1.000000000E-04
(PID.TID 0000.0001) grdchk output (c):   4  1.8410854061762E+14  1.8410854061451E+14  1.8410854062073E+14
(PID.TID 0000.0001) grdchk output (g):   4    -3.1110781250000E+07 -3.1110790024215E+07  2.8203126045678E-07
(PID.TID 0000.0001) 
(PID.TID 0000.0001) grdchk output (p):   5    19     5     4    1    1   0.000000000E+00 -1.000000000E-04
(PID.TID 0000.0001) grdchk output (c):   5  1.8410854061762E+14  1.8410854061396E+14  1.8410854062127E+14
(PID.TID 0000.0001) grdchk output (g):   5    -3.6549375000000E+07 -3.6549343949111E+07 -8.4956076285003E-07
(PID.TID 0000.0001) 
(PID.TID 0000.0001) // =======================================================
(PID.TID 0000.0001) // Gradient check results  >>> END <<<
(PID.TID 0000.0001) // =======================================================
(PID.TID 0000.0001) 
(PID.TID 0000.0001)   Seconds in section "ALL                    [THE_MODEL_MAIN]":
(PID.TID 0000.0001)           User time:   112.15000000000001
(PID.TID 0000.0001)         System time:  0.47000000000000003
(PID.TID 0000.0001)     Wall clock time:   112.91366195678711
(PID.TID 0000.0001)          No. starts:           1
(PID.TID 0000.0001)           No. stops:           1
(PID.TID 0000.0001)   Seconds in section "INITIALISE_FIXED       [THE_MODEL_MAIN]":
(PID.TID 0000.0001)           User time:  0.25000000000000000
(PID.TID 0000.0001)         System time:  2.00000000000000004E-002
(PID.TID 0000.0001)     Wall clock time:  0.29034519195556641
(PID.TID 0000.0001)          No. starts:           1
(PID.TID 0000.0001)           No. stops:           1
(PID.TID 0000.0001)   Seconds in section "ADTHE_MAIN_LOOP          [ADJOINT RUN]":
(PID.TID 0000.0001)           User time:   47.660000000000004
(PID.TID 0000.0001)         System time:  0.41999999999999998
(PID.TID 0000.0001)     Wall clock time:   48.208380937576294
(PID.TID 0000.0001)          No. starts:           1
(PID.TID 0000.0001)           No. stops:           1
(PID.TID 0000.0001)   Seconds in section "UPDATE_R_STAR       [FORWARD_STEP]":
(PID.TID 0000.0001)           User time:   1.5000000000000568
(PID.TID 0000.0001)         System time:   0.0000000000000000
(PID.TID 0000.0001)     Wall clock time:   1.5424003601074219
(PID.TID 0000.0001)          No. starts:          88
(PID.TID 0000.0001)           No. stops:          88
(PID.TID 0000.0001)   Seconds in section "LOAD_FIELDS_DRIVER  [FORWARD_STEP]":
(PID.TID 0000.0001)           User time:   0.0000000000000000
(PID.TID 0000.0001)         System time:   0.0000000000000000
(PID.TID 0000.0001)     Wall clock time:  1.25336647033691406E-003
(PID.TID 0000.0001)          No. starts:          44
(PID.TID 0000.0001)           No. stops:          44
(PID.TID 0000.0001)   Seconds in section "EXTERNAL_FLDS_LOAD [LOAD_FLDS_DRIVER]":
(PID.TID 0000.0001)           User time:   0.0000000000000000
(PID.TID 0000.0001)         System time:   0.0000000000000000
(PID.TID 0000.0001)     Wall clock time:  5.22136688232421875E-004
(PID.TID 0000.0001)          No. starts:          52
(PID.TID 0000.0001)           No. stops:          52
(PID.TID 0000.0001)   Seconds in section "I/O (WRITE)        [ADJOINT LOOP]":
(PID.TID 0000.0001)           User time:   0.0000000000000000
(PID.TID 0000.0001)         System time:   0.0000000000000000
(PID.TID 0000.0001)     Wall clock time:  6.74962997436523438E-004
(PID.TID 0000.0001)          No. starts:          72
(PID.TID 0000.0001)           No. stops:          72
(PID.TID 0000.0001)   Seconds in section "DO_ATMOSPHERIC_PHYS [FORWARD_STEP]":
(PID.TID 0000.0001)           User time:   0.0000000000000000
(PID.TID 0000.0001)         System time:   0.0000000000000000
(PID.TID 0000.0001)     Wall clock time:  4.08887863159179688E-004
(PID.TID 0000.0001)          No. starts:          44
(PID.TID 0000.0001)           No. stops:          44
(PID.TID 0000.0001)   Seconds in section "DO_OCEANIC_PHYS     [FORWARD_STEP]":
(PID.TID 0000.0001)           User time:   10.159999999999982
(PID.TID 0000.0001)         System time:  2.00000000000000178E-002
(PID.TID 0000.0001)     Wall clock time:   10.182239770889282
(PID.TID 0000.0001)          No. starts:          44
(PID.TID 0000.0001)           No. stops:          44
(PID.TID 0000.0001)   Seconds in section "THERMODYNAMICS      [FORWARD_STEP]":
(PID.TID 0000.0001)           User time:   28.010000000000005
(PID.TID 0000.0001)         System time:   0.0000000000000000
(PID.TID 0000.0001)     Wall clock time:   28.035570144653320
(PID.TID 0000.0001)          No. starts:          44
(PID.TID 0000.0001)           No. stops:          44
(PID.TID 0000.0001)   Seconds in section "DYNAMICS            [FORWARD_STEP]":
(PID.TID 0000.0001)           User time:   19.340000000000003
(PID.TID 0000.0001)         System time:   0.0000000000000000
(PID.TID 0000.0001)     Wall clock time:   19.363816261291504
(PID.TID 0000.0001)          No. starts:          44
(PID.TID 0000.0001)           No. stops:          44
(PID.TID 0000.0001)   Seconds in section "SOLVE_FOR_PRESSURE  [FORWARD_STEP]":
(PID.TID 0000.0001)           User time:   3.8100000000000023
(PID.TID 0000.0001)         System time:   0.0000000000000000
(PID.TID 0000.0001)     Wall clock time:   3.8702547550201416
(PID.TID 0000.0001)          No. starts:          44
(PID.TID 0000.0001)           No. stops:          44
(PID.TID 0000.0001)   Seconds in section "MOM_CORRECTION_STEP [FORWARD_STEP]":
(PID.TID 0000.0001)           User time:  0.40999999999999659
(PID.TID 0000.0001)         System time:   0.0000000000000000
(PID.TID 0000.0001)     Wall clock time:  0.40125632286071777
(PID.TID 0000.0001)          No. starts:          44
(PID.TID 0000.0001)           No. stops:          44
(PID.TID 0000.0001)   Seconds in section "INTEGR_CONTINUITY   [FORWARD_STEP]":
(PID.TID 0000.0001)           User time:   1.1899999999999977
(PID.TID 0000.0001)         System time:   0.0000000000000000
(PID.TID 0000.0001)     Wall clock time:   1.1688578128814697
(PID.TID 0000.0001)          No. starts:          44
(PID.TID 0000.0001)           No. stops:          44
(PID.TID 0000.0001)   Seconds in section "CALC_R_STAR         [FORWARD_STEP]":
(PID.TID 0000.0001)           User time:  9.99999999999943157E-002
(PID.TID 0000.0001)         System time:   0.0000000000000000
(PID.TID 0000.0001)     Wall clock time:  0.10799813270568848
(PID.TID 0000.0001)          No. starts:          44
(PID.TID 0000.0001)           No. stops:          44
(PID.TID 0000.0001)   Seconds in section "TRC_CORRECTION_STEP [FORWARD_STEP]":
(PID.TID 0000.0001)           User time:   1.8599999999999994
(PID.TID 0000.0001)         System time:   0.0000000000000000
(PID.TID 0000.0001)     Wall clock time:   1.8674857616424561
(PID.TID 0000.0001)          No. starts:          44
(PID.TID 0000.0001)           No. stops:          44
(PID.TID 0000.0001)   Seconds in section "BLOCKING_EXCHANGES  [FORWARD_STEP]":
(PID.TID 0000.0001)           User time:  0.54000000000000625
(PID.TID 0000.0001)         System time:   0.0000000000000000
(PID.TID 0000.0001)     Wall clock time:  0.54109144210815430
(PID.TID 0000.0001)          No. starts:          44
(PID.TID 0000.0001)           No. stops:          44
(PID.TID 0000.0001)   Seconds in section "DO_STATEVARS_TAVE   [FORWARD_STEP]":
(PID.TID 0000.0001)           User time:   0.0000000000000000
(PID.TID 0000.0001)         System time:   0.0000000000000000
(PID.TID 0000.0001)     Wall clock time:  4.91142272949218750E-004
(PID.TID 0000.0001)          No. starts:          44
(PID.TID 0000.0001)           No. stops:          44
(PID.TID 0000.0001)   Seconds in section "MONITOR             [FORWARD_STEP]":
(PID.TID 0000.0001)           User time:  0.46999999999999886
(PID.TID 0000.0001)         System time:   0.0000000000000000
(PID.TID 0000.0001)     Wall clock time:  0.46340227127075195
(PID.TID 0000.0001)          No. starts:          44
(PID.TID 0000.0001)           No. stops:          44
(PID.TID 0000.0001)   Seconds in section "COST_TILE           [FORWARD_STEP]":
(PID.TID 0000.0001)           User time:  1.99999999999960210E-002
(PID.TID 0000.0001)         System time:   0.0000000000000000
(PID.TID 0000.0001)     Wall clock time:  6.68954849243164063E-003
(PID.TID 0000.0001)          No. starts:          44
(PID.TID 0000.0001)           No. stops:          44
(PID.TID 0000.0001)   Seconds in section "DO_THE_MODEL_IO     [FORWARD_STEP]":
(PID.TID 0000.0001)           User time:  0.18000000000000682
(PID.TID 0000.0001)         System time:  1.00000000000000089E-002
(PID.TID 0000.0001)     Wall clock time:  0.19397544860839844
(PID.TID 0000.0001)          No. starts:          44
(PID.TID 0000.0001)           No. stops:          44
(PID.TID 0000.0001)   Seconds in section "DO_WRITE_PICKUP     [FORWARD_STEP]":
(PID.TID 0000.0001)           User time:  6.99999999999931788E-002
(PID.TID 0000.0001)         System time:  1.00000000000000089E-002
(PID.TID 0000.0001)     Wall clock time:  7.64155387878417969E-002
(PID.TID 0000.0001)          No. starts:          44
(PID.TID 0000.0001)           No. stops:          44
(PID.TID 0000.0001)   Seconds in section "GRDCHK_MAIN         [THE_MODEL_MAIN]":
(PID.TID 0000.0001)           User time:   64.240000000000009
(PID.TID 0000.0001)         System time:  3.00000000000000266E-002
(PID.TID 0000.0001)     Wall clock time:   64.414875030517578
(PID.TID 0000.0001)          No. starts:           1
(PID.TID 0000.0001)           No. stops:           1
(PID.TID 0000.0001)   Seconds in section "INITIALISE_VARIA    [THE_MAIN_LOOP]":
(PID.TID 0000.0001)           User time:   2.3000000000000256
(PID.TID 0000.0001)         System time:   0.0000000000000000
(PID.TID 0000.0001)     Wall clock time:   2.3180463314056396
(PID.TID 0000.0001)          No. starts:          10
(PID.TID 0000.0001)           No. stops:          10
(PID.TID 0000.0001)   Seconds in section "MAIN LOOP           [THE_MAIN_LOOP]":
(PID.TID 0000.0001)           User time:   61.729999999999990
(PID.TID 0000.0001)         System time:  2.00000000000000178E-002
(PID.TID 0000.0001)     Wall clock time:   61.860604763031006
(PID.TID 0000.0001)          No. starts:          10
(PID.TID 0000.0001)           No. stops:          10
(PID.TID 0000.0001)   Seconds in section "FORWARD_STEP        [THE_MAIN_LOOP]":
(PID.TID 0000.0001)           User time:   60.850000000000094
(PID.TID 0000.0001)         System time:  2.00000000000000178E-002
(PID.TID 0000.0001)     Wall clock time:   60.977094888687134
(PID.TID 0000.0001)          No. starts:          40
(PID.TID 0000.0001)           No. stops:          40
(PID.TID 0000.0001)   Seconds in section "COST_FINAL         [ADJOINT SPIN-DOWN]":
(PID.TID 0000.0001)           User time:   0.0000000000000000
(PID.TID 0000.0001)         System time:   0.0000000000000000
(PID.TID 0000.0001)     Wall clock time:  6.84976577758789063E-004
(PID.TID 0000.0001)          No. starts:          10
(PID.TID 0000.0001)           No. stops:          10
(PID.TID 0000.0001) // ======================================================
(PID.TID 0000.0001) // Tile <-> Tile communication statistics
(PID.TID 0000.0001) // ======================================================
(PID.TID 0000.0001) // o Tile number: 000001
(PID.TID 0000.0001) //         No. X exchanges =              0
(PID.TID 0000.0001) //            Max. X spins =              0
(PID.TID 0000.0001) //            Min. X spins =     1000000000
(PID.TID 0000.0001) //          Total. X spins =              0
(PID.TID 0000.0001) //            Avg. X spins =       0.00E+00
(PID.TID 0000.0001) //         No. Y exchanges =              0
(PID.TID 0000.0001) //            Max. Y spins =              0
(PID.TID 0000.0001) //            Min. Y spins =     1000000000
(PID.TID 0000.0001) //          Total. Y spins =              0
(PID.TID 0000.0001) //            Avg. Y spins =       0.00E+00
(PID.TID 0000.0001) // o Tile number: 000002
(PID.TID 0000.0001) //         No. X exchanges =              0
(PID.TID 0000.0001) //            Max. X spins =              0
(PID.TID 0000.0001) //            Min. X spins =     1000000000
(PID.TID 0000.0001) //          Total. X spins =              0
(PID.TID 0000.0001) //            Avg. X spins =       0.00E+00
(PID.TID 0000.0001) //         No. Y exchanges =              0
(PID.TID 0000.0001) //            Max. Y spins =              0
(PID.TID 0000.0001) //            Min. Y spins =     1000000000
(PID.TID 0000.0001) //          Total. Y spins =              0
(PID.TID 0000.0001) //            Avg. Y spins =       0.00E+00
(PID.TID 0000.0001) // o Tile number: 000003
(PID.TID 0000.0001) //         No. X exchanges =              0
(PID.TID 0000.0001) //            Max. X spins =              0
(PID.TID 0000.0001) //            Min. X spins =     1000000000
(PID.TID 0000.0001) //          Total. X spins =              0
(PID.TID 0000.0001) //            Avg. X spins =       0.00E+00
(PID.TID 0000.0001) //         No. Y exchanges =              0
(PID.TID 0000.0001) //            Max. Y spins =              0
(PID.TID 0000.0001) //            Min. Y spins =     1000000000
(PID.TID 0000.0001) //          Total. Y spins =              0
(PID.TID 0000.0001) //            Avg. Y spins =       0.00E+00
(PID.TID 0000.0001) // o Tile number: 000004
(PID.TID 0000.0001) //         No. X exchanges =              0
(PID.TID 0000.0001) //            Max. X spins =              0
(PID.TID 0000.0001) //            Min. X spins =     1000000000
(PID.TID 0000.0001) //          Total. X spins =              0
(PID.TID 0000.0001) //            Avg. X spins =       0.00E+00
(PID.TID 0000.0001) //         No. Y exchanges =              0
(PID.TID 0000.0001) //            Max. Y spins =              0
(PID.TID 0000.0001) //            Min. Y spins =     1000000000
(PID.TID 0000.0001) //          Total. Y spins =              0
(PID.TID 0000.0001) //            Avg. Y spins =       0.00E+00
(PID.TID 0000.0001) // o Thread number: 000001
(PID.TID 0000.0001) //            No. barriers =          19980
(PID.TID 0000.0001) //      Max. barrier spins =              1
(PID.TID 0000.0001) //      Min. barrier spins =              1
(PID.TID 0000.0001) //     Total barrier spins =          19980
(PID.TID 0000.0001) //      Avg. barrier spins =       1.00E+00
PROGRAM MAIN: Execution ended Normally
