(PID.TID 0000.0001) 
(PID.TID 0000.0001) // ======================================================
(PID.TID 0000.0001) //                      MITgcm UV
(PID.TID 0000.0001) //                      =========
(PID.TID 0000.0001) // ======================================================
(PID.TID 0000.0001) // execution environment starting up...
(PID.TID 0000.0001) // Run starting Wed Apr  1 14:19:48 1998
(PID.TID 0000.0001) // on melville.lcs.mit.edu
(PID.TID 0000.0001) // account cnh
(PID.TID 0000.0001) // MITgcm UV Release: $Name:  $
(PID.TID 0000.0001) 
(PID.TID 0000.0001) // =======================================================
(PID.TID 0000.0001) // Execution Environment parameter file "eedata"
(PID.TID 0000.0001) // =======================================================
(PID.TID 0000.0001) ># Example "eedata" file
(PID.TID 0000.0001) ># Lines beginning "#" are comments
(PID.TID 0000.0001) ># nTx - No. threads per process in X
(PID.TID 0000.0001) ># nTy - No. threads per process in Y
(PID.TID 0000.0001) > &EEPARMS
(PID.TID 0000.0001) > useCubedSphereExchange=.TRUE.,
(PID.TID 0000.0001) > nTx=1,nTy=1
(PID.TID 0000.0001) > &
(PID.TID 0000.0001) ># Note: Some systems use & as the
(PID.TID 0000.0001) ># namelist terminator. Other systems
(PID.TID 0000.0001) ># use a / character (as shown here).
(PID.TID 0000.0001) 
(PID.TID 0000.0001) // =======================================================
(PID.TID 0000.0001) // Computational Grid Specification ( see files "SIZE.h" )
(PID.TID 0000.0001) //                                  ( and "eedata"       )
(PID.TID 0000.0001) // =======================================================
(PID.TID 0000.0001)      nPx =    1 ; /* No. processes in X */
(PID.TID 0000.0001)      nPy =    1 ; /* No. processes in Y */
(PID.TID 0000.0001)      nSx =  192 ; /* No. tiles in X per process */
(PID.TID 0000.0001)      nSy =    1 ; /* No. tiles in Y per process */
(PID.TID 0000.0001)      sNx =    8 ; /* Tile size in X */
(PID.TID 0000.0001)      sNy =    4 ; /* Tile size in Y */
(PID.TID 0000.0001)      OLx =    2 ; /* Tile overlap distance in X */
(PID.TID 0000.0001)      OLy =    2 ; /* Tile overlap distance in Y */
(PID.TID 0000.0001)      nTx =    1 ; /* No. threads in X per process */
(PID.TID 0000.0001)      nTy =    1 ; /* No. threads in Y per process */
(PID.TID 0000.0001)       Nr =   15 ; /* No. levels in the vertical   */
(PID.TID 0000.0001)       nX = 1536 ; /* Total domain size in X ( = nPx*nSx*sNx ) */
(PID.TID 0000.0001)       nY =    4 ; /* Total domain size in Y ( = nPy*nSy*sNy ) */
(PID.TID 0000.0001)   nTiles =  192 ; /* Total no. tiles per process ( = nSx*nSy ) */
(PID.TID 0000.0001)   nProcs =    1 ; /* Total no. processes ( = nPx*nPy ) */
(PID.TID 0000.0001) nThreads =    1 ; /* Total no. threads per process ( = nTx*nTy ) */
(PID.TID 0000.0001) usingMPI =    F ; /* Flag used to control whether MPI is in use */
(PID.TID 0000.0001)                   /*  note: To execute a program with MPI calls */
(PID.TID 0000.0001)                   /*  it must be launched appropriately e.g     */
(PID.TID 0000.0001)                   /*  "mpirun -np 64 ......"                    */
(PID.TID 0000.0001) useCoupler=   F ; /* Flag used to control communications with */
(PID.TID 0000.0001)                   /*  other model components, through a coupler */
(PID.TID 0000.0001) 
(PID.TID 0000.0001) // ======================================================
(PID.TID 0000.0001) // Mapping of tiles to threads
(PID.TID 0000.0001) // ======================================================
(PID.TID 0000.0001) // -o- Thread   1, tiles (   1: 192,   1:   1)
(PID.TID 0000.0001) 
(PID.TID 0000.0001) // ======================================================
(PID.TID 0000.0001) // Tile <-> Tile connectvity table
(PID.TID 0000.0001) // ======================================================
(PID.TID 0000.0001) // Tile number: 000001 (process no. = 000001)
(PID.TID 0000.0001) //        WEST: Tile = 000192, Process = 000001, Comm = put
(PID.TID 0000.0001) //                bi = 000192, bj = 000001
(PID.TID 0000.0001) //        EAST: Tile = 000002, Process = 000001, Comm = put
(PID.TID 0000.0001) //                bi = 000002, bj = 000001
(PID.TID 0000.0001) //       SOUTH: Tile = 000001, Process = 000001, Comm = put
(PID.TID 0000.0001) //                bi = 000001, bj = 000001
(PID.TID 0000.0001) //       NORTH: Tile = 000001, Process = 000001, Comm = put
(PID.TID 0000.0001) //                bi = 000001, bj = 000001
(PID.TID 0000.0001) // Tile number: 000002 (process no. = 000001)
(PID.TID 0000.0001) //        WEST: Tile = 000001, Process = 000001, Comm = put
(PID.TID 0000.0001) //                bi = 000001, bj = 000001
(PID.TID 0000.0001) //        EAST: Tile = 000003, Process = 000001, Comm = put
(PID.TID 0000.0001) //                bi = 000003, bj = 000001
(PID.TID 0000.0001) //       SOUTH: Tile = 000002, Process = 000001, Comm = put
(PID.TID 0000.0001) //                bi = 000002, bj = 000001
(PID.TID 0000.0001) //       NORTH: Tile = 000002, Process = 000001, Comm = put
(PID.TID 0000.0001) //                bi = 000002, bj = 000001
(PID.TID 0000.0001) // Tile number: 000003 (process no. = 000001)
(PID.TID 0000.0001) //        WEST: Tile = 000002, Process = 000001, Comm = put
(PID.TID 0000.0001) //                bi = 000002, bj = 000001
(PID.TID 0000.0001) //        EAST: Tile = 000004, Process = 000001, Comm = put
(PID.TID 0000.0001) //                bi = 000004, bj = 000001
(PID.TID 0000.0001) //       SOUTH: Tile = 000003, Process = 000001, Comm = put
(PID.TID 0000.0001) //                bi = 000003, bj = 000001
(PID.TID 0000.0001) //       NORTH: Tile = 000003, Process = 000001, Comm = put
(PID.TID 0000.0001) //                bi = 000003, bj = 000001
(PID.TID 0000.0001) // Tile number: 000004 (process no. = 000001)
(PID.TID 0000.0001) //        WEST: Tile = 000003, Process = 000001, Comm = put
(PID.TID 0000.0001) //                bi = 000003, bj = 000001
(PID.TID 0000.0001) //        EAST: Tile = 000005, Process = 000001, Comm = put
(PID.TID 0000.0001) //                bi = 000005, bj = 000001
(PID.TID 0000.0001) //       SOUTH: Tile = 000004, Process = 000001, Comm = put
(PID.TID 0000.0001) //                bi = 000004, bj = 000001
(PID.TID 0000.0001) //       NORTH: Tile = 000004, Process = 000001, Comm = put
(PID.TID 0000.0001) //                bi = 000004, bj = 000001
(PID.TID 0000.0001) // Tile number: 000005 (process no. = 000001)
(PID.TID 0000.0001) //        WEST: Tile = 000004, Process = 000001, Comm = put
(PID.TID 0000.0001) //                bi = 000004, bj = 000001
(PID.TID 0000.0001) //        EAST: Tile = 000006, Process = 000001, Comm = put
(PID.TID 0000.0001) //                bi = 000006, bj = 000001
(PID.TID 0000.0001) //       SOUTH: Tile = 000005, Process = 000001, Comm = put
(PID.TID 0000.0001) //                bi = 000005, bj = 000001
(PID.TID 0000.0001) //       NORTH: Tile = 000005, Process = 000001, Comm = put
(PID.TID 0000.0001) //                bi = 000005, bj = 000001
(PID.TID 0000.0001) // Tile number: 000006 (process no. = 000001)
(PID.TID 0000.0001) //        WEST: Tile = 000005, Process = 000001, Comm = put
(PID.TID 0000.0001) //                bi = 000005, bj = 000001
(PID.TID 0000.0001) //        EAST: Tile = 000007, Process = 000001, Comm = put
(PID.TID 0000.0001) //                bi = 000007, bj = 000001
(PID.TID 0000.0001) //       SOUTH: Tile = 000006, Process = 000001, Comm = put
(PID.TID 0000.0001) //                bi = 000006, bj = 000001
(PID.TID 0000.0001) //       NORTH: Tile = 000006, Process = 000001, Comm = put
(PID.TID 0000.0001) //                bi = 000006, bj = 000001
(PID.TID 0000.0001) // Tile number: 000007 (process no. = 000001)
(PID.TID 0000.0001) //        WEST: Tile = 000006, Process = 000001, Comm = put
(PID.TID 0000.0001) //                bi = 000006, bj = 000001
(PID.TID 0000.0001) //        EAST: Tile = 000008, Process = 000001, Comm = put
(PID.TID 0000.0001) //                bi = 000008, bj = 000001
(PID.TID 0000.0001) //       SOUTH: Tile = 000007, Process = 000001, Comm = put
(PID.TID 0000.0001) //                bi = 000007, bj = 000001
(PID.TID 0000.0001) //       NORTH: Tile = 000007, Process = 000001, Comm = put
(PID.TID 0000.0001) //                bi = 000007, bj = 000001
(PID.TID 0000.0001) // Tile number: 000008 (process no. = 000001)
(PID.TID 0000.0001) //        WEST: Tile = 000007, Process = 000001, Comm = put
(PID.TID 0000.0001) //                bi = 000007, bj = 000001
(PID.TID 0000.0001) //        EAST: Tile = 000009, Process = 000001, Comm = put
(PID.TID 0000.0001) //                bi = 000009, bj = 000001
(PID.TID 0000.0001) //       SOUTH: Tile = 000008, Process = 000001, Comm = put
(PID.TID 0000.0001) //                bi = 000008, bj = 000001
(PID.TID 0000.0001) //       NORTH: Tile = 000008, Process = 000001, Comm = put
(PID.TID 0000.0001) //                bi = 000008, bj = 000001
(PID.TID 0000.0001) // Tile number: 000009 (process no. = 000001)
(PID.TID 0000.0001) //        WEST: Tile = 000008, Process = 000001, Comm = put
(PID.TID 0000.0001) //                bi = 000008, bj = 000001
(PID.TID 0000.0001) //        EAST: Tile = 000010, Process = 000001, Comm = put
(PID.TID 0000.0001) //                bi = 000010, bj = 000001
(PID.TID 0000.0001) //       SOUTH: Tile = 000009, Process = 000001, Comm = put
(PID.TID 0000.0001) //                bi = 000009, bj = 000001
(PID.TID 0000.0001) //       NORTH: Tile = 000009, Process = 000001, Comm = put
(PID.TID 0000.0001) //                bi = 000009, bj = 000001
(PID.TID 0000.0001) // Tile number: 000010 (process no. = 000001)
(PID.TID 0000.0001) //        WEST: Tile = 000009, Process = 000001, Comm = put
(PID.TID 0000.0001) //                bi = 000009, bj = 000001
(PID.TID 0000.0001) //        EAST: Tile = 000011, Process = 000001, Comm = put
(PID.TID 0000.0001) //                bi = 000011, bj = 000001
(PID.TID 0000.0001) //       SOUTH: Tile = 000010, Process = 000001, Comm = put
(PID.TID 0000.0001) //                bi = 000010, bj = 000001
(PID.TID 0000.0001) //       NORTH: Tile = 000010, Process = 000001, Comm = put
(PID.TID 0000.0001) //                bi = 000010, bj = 000001
(PID.TID 0000.0001) // Tile number: 000011 (process no. = 000001)
(PID.TID 0000.0001) //        WEST: Tile = 000010, Process = 000001, Comm = put
(PID.TID 0000.0001) //                bi = 000010, bj = 000001
(PID.TID 0000.0001) //        EAST: Tile = 000012, Process = 000001, Comm = put
(PID.TID 0000.0001) //                bi = 000012, bj = 000001
(PID.TID 0000.0001) //       SOUTH: Tile = 000011, Process = 000001, Comm = put
(PID.TID 0000.0001) //                bi = 000011, bj = 000001
(PID.TID 0000.0001) //       NORTH: Tile = 000011, Process = 000001, Comm = put
(PID.TID 0000.0001) //                bi = 000011, bj = 000001
(PID.TID 0000.0001) // Tile number: 000012 (process no. = 000001)
(PID.TID 0000.0001) //        WEST: Tile = 000011, Process = 000001, Comm = put
(PID.TID 0000.0001) //                bi = 000011, bj = 000001
(PID.TID 0000.0001) //        EAST: Tile = 000013, Process = 000001, Comm = put
(PID.TID 0000.0001) //                bi = 000013, bj = 000001
(PID.TID 0000.0001) //       SOUTH: Tile = 000012, Process = 000001, Comm = put
(PID.TID 0000.0001) //                bi = 000012, bj = 000001
(PID.TID 0000.0001) //       NORTH: Tile = 000012, Process = 000001, Comm = put
(PID.TID 0000.0001) //                bi = 000012, bj = 000001
(PID.TID 0000.0001) // Tile number: 000013 (process no. = 000001)
(PID.TID 0000.0001) //        WEST: Tile = 000012, Process = 000001, Comm = put
(PID.TID 0000.0001) //                bi = 000012, bj = 000001
(PID.TID 0000.0001) //        EAST: Tile = 000014, Process = 000001, Comm = put
(PID.TID 0000.0001) //                bi = 000014, bj = 000001
(PID.TID 0000.0001) //       SOUTH: Tile = 000013, Process = 000001, Comm = put
(PID.TID 0000.0001) //                bi = 000013, bj = 000001
(PID.TID 0000.0001) //       NORTH: Tile = 000013, Process = 000001, Comm = put
(PID.TID 0000.0001) //                bi = 000013, bj = 000001
(PID.TID 0000.0001) // Tile number: 000014 (process no. = 000001)
(PID.TID 0000.0001) //        WEST: Tile = 000013, Process = 000001, Comm = put
(PID.TID 0000.0001) //                bi = 000013, bj = 000001
(PID.TID 0000.0001) //        EAST: Tile = 000015, Process = 000001, Comm = put
(PID.TID 0000.0001) //                bi = 000015, bj = 000001
(PID.TID 0000.0001) //       SOUTH: Tile = 000014, Process = 000001, Comm = put
(PID.TID 0000.0001) //                bi = 000014, bj = 000001
(PID.TID 0000.0001) //       NORTH: Tile = 000014, Process = 000001, Comm = put
(PID.TID 0000.0001) //                bi = 000014, bj = 000001
(PID.TID 0000.0001) // Tile number: 000015 (process no. = 000001)
(PID.TID 0000.0001) //        WEST: Tile = 000014, Process = 000001, Comm = put
(PID.TID 0000.0001) //                bi = 000014, bj = 000001
(PID.TID 0000.0001) //        EAST: Tile = 000016, Process = 000001, Comm = put
(PID.TID 0000.0001) //                bi = 000016, bj = 000001
(PID.TID 0000.0001) //       SOUTH: Tile = 000015, Process = 000001, Comm = put
(PID.TID 0000.0001) //                bi = 000015, bj = 000001
(PID.TID 0000.0001) //       NORTH: Tile = 000015, Process = 000001, Comm = put
(PID.TID 0000.0001) //                bi = 000015, bj = 000001
(PID.TID 0000.0001) // Tile number: 000016 (process no. = 000001)
(PID.TID 0000.0001) //        WEST: Tile = 000015, Process = 000001, Comm = put
(PID.TID 0000.0001) //                bi = 000015, bj = 000001
(PID.TID 0000.0001) //        EAST: Tile = 000017, Process = 000001, Comm = put
(PID.TID 0000.0001) //                bi = 000017, bj = 000001
(PID.TID 0000.0001) //       SOUTH: Tile = 000016, Process = 000001, Comm = put
(PID.TID 0000.0001) //                bi = 000016, bj = 000001
(PID.TID 0000.0001) //       NORTH: Tile = 000016, Process = 000001, Comm = put
(PID.TID 0000.0001) //                bi = 000016, bj = 000001
(PID.TID 0000.0001) // Tile number: 000017 (process no. = 000001)
(PID.TID 0000.0001) //        WEST: Tile = 000016, Process = 000001, Comm = put
(PID.TID 0000.0001) //                bi = 000016, bj = 000001
(PID.TID 0000.0001) //        EAST: Tile = 000018, Process = 000001, Comm = put
(PID.TID 0000.0001) //                bi = 000018, bj = 000001
(PID.TID 0000.0001) //       SOUTH: Tile = 000017, Process = 000001, Comm = put
(PID.TID 0000.0001) //                bi = 000017, bj = 000001
(PID.TID 0000.0001) //       NORTH: Tile = 000017, Process = 000001, Comm = put
(PID.TID 0000.0001) //                bi = 000017, bj = 000001
(PID.TID 0000.0001) // Tile number: 000018 (process no. = 000001)
(PID.TID 0000.0001) //        WEST: Tile = 000017, Process = 000001, Comm = put
(PID.TID 0000.0001) //                bi = 000017, bj = 000001
(PID.TID 0000.0001) //        EAST: Tile = 000019, Process = 000001, Comm = put
(PID.TID 0000.0001) //                bi = 000019, bj = 000001
(PID.TID 0000.0001) //       SOUTH: Tile = 000018, Process = 000001, Comm = put
(PID.TID 0000.0001) //                bi = 000018, bj = 000001
(PID.TID 0000.0001) //       NORTH: Tile = 000018, Process = 000001, Comm = put
(PID.TID 0000.0001) //                bi = 000018, bj = 000001
(PID.TID 0000.0001) // Tile number: 000019 (process no. = 000001)
(PID.TID 0000.0001) //        WEST: Tile = 000018, Process = 000001, Comm = put
(PID.TID 0000.0001) //                bi = 000018, bj = 000001
(PID.TID 0000.0001) //        EAST: Tile = 000020, Process = 000001, Comm = put
(PID.TID 0000.0001) //                bi = 000020, bj = 000001
(PID.TID 0000.0001) //       SOUTH: Tile = 000019, Process = 000001, Comm = put
(PID.TID 0000.0001) //                bi = 000019, bj = 000001
(PID.TID 0000.0001) //       NORTH: Tile = 000019, Process = 000001, Comm = put
(PID.TID 0000.0001) //                bi = 000019, bj = 000001
(PID.TID 0000.0001) // Tile number: 000020 (process no. = 000001)
(PID.TID 0000.0001) //        WEST: Tile = 000019, Process = 000001, Comm = put
(PID.TID 0000.0001) //                bi = 000019, bj = 000001
(PID.TID 0000.0001) //        EAST: Tile = 000021, Process = 000001, Comm = put
(PID.TID 0000.0001) //                bi = 000021, bj = 000001
(PID.TID 0000.0001) //       SOUTH: Tile = 000020, Process = 000001, Comm = put
(PID.TID 0000.0001) //                bi = 000020, bj = 000001
(PID.TID 0000.0001) //       NORTH: Tile = 000020, Process = 000001, Comm = put
(PID.TID 0000.0001) //                bi = 000020, bj = 000001
(PID.TID 0000.0001) // Tile number: 000021 (process no. = 000001)
(PID.TID 0000.0001) //        WEST: Tile = 000020, Process = 000001, Comm = put
(PID.TID 0000.0001) //                bi = 000020, bj = 000001
(PID.TID 0000.0001) //        EAST: Tile = 000022, Process = 000001, Comm = put
(PID.TID 0000.0001) //                bi = 000022, bj = 000001
(PID.TID 0000.0001) //       SOUTH: Tile = 000021, Process = 000001, Comm = put
(PID.TID 0000.0001) //                bi = 000021, bj = 000001
(PID.TID 0000.0001) //       NORTH: Tile = 000021, Process = 000001, Comm = put
(PID.TID 0000.0001) //                bi = 000021, bj = 000001
(PID.TID 0000.0001) // Tile number: 000022 (process no. = 000001)
(PID.TID 0000.0001) //        WEST: Tile = 000021, Process = 000001, Comm = put
(PID.TID 0000.0001) //                bi = 000021, bj = 000001
(PID.TID 0000.0001) //        EAST: Tile = 000023, Process = 000001, Comm = put
(PID.TID 0000.0001) //                bi = 000023, bj = 000001
(PID.TID 0000.0001) //       SOUTH: Tile = 000022, Process = 000001, Comm = put
(PID.TID 0000.0001) //                bi = 000022, bj = 000001
(PID.TID 0000.0001) //       NORTH: Tile = 000022, Process = 000001, Comm = put
(PID.TID 0000.0001) //                bi = 000022, bj = 000001
(PID.TID 0000.0001) // Tile number: 000023 (process no. = 000001)
(PID.TID 0000.0001) //        WEST: Tile = 000022, Process = 000001, Comm = put
(PID.TID 0000.0001) //                bi = 000022, bj = 000001
(PID.TID 0000.0001) //        EAST: Tile = 000024, Process = 000001, Comm = put
(PID.TID 0000.0001) //                bi = 000024, bj = 000001
(PID.TID 0000.0001) //       SOUTH: Tile = 000023, Process = 000001, Comm = put
(PID.TID 0000.0001) //                bi = 000023, bj = 000001
(PID.TID 0000.0001) //       NORTH: Tile = 000023, Process = 000001, Comm = put
(PID.TID 0000.0001) //                bi = 000023, bj = 000001
(PID.TID 0000.0001) // Tile number: 000024 (process no. = 000001)
(PID.TID 0000.0001) //        WEST: Tile = 000023, Process = 000001, Comm = put
(PID.TID 0000.0001) //                bi = 000023, bj = 000001
(PID.TID 0000.0001) //        EAST: Tile = 000025, Process = 000001, Comm = put
(PID.TID 0000.0001) //                bi = 000025, bj = 000001
(PID.TID 0000.0001) //       SOUTH: Tile = 000024, Process = 000001, Comm = put
(PID.TID 0000.0001) //                bi = 000024, bj = 000001
(PID.TID 0000.0001) //       NORTH: Tile = 000024, Process = 000001, Comm = put
(PID.TID 0000.0001) //                bi = 000024, bj = 000001
(PID.TID 0000.0001) // Tile number: 000025 (process no. = 000001)
(PID.TID 0000.0001) //        WEST: Tile = 000024, Process = 000001, Comm = put
(PID.TID 0000.0001) //                bi = 000024, bj = 000001
(PID.TID 0000.0001) //        EAST: Tile = 000026, Process = 000001, Comm = put
(PID.TID 0000.0001) //                bi = 000026, bj = 000001
(PID.TID 0000.0001) //       SOUTH: Tile = 000025, Process = 000001, Comm = put
(PID.TID 0000.0001) //                bi = 000025, bj = 000001
(PID.TID 0000.0001) //       NORTH: Tile = 000025, Process = 000001, Comm = put
(PID.TID 0000.0001) //                bi = 000025, bj = 000001
(PID.TID 0000.0001) // Tile number: 000026 (process no. = 000001)
(PID.TID 0000.0001) //        WEST: Tile = 000025, Process = 000001, Comm = put
(PID.TID 0000.0001) //                bi = 000025, bj = 000001
(PID.TID 0000.0001) //        EAST: Tile = 000027, Process = 000001, Comm = put
(PID.TID 0000.0001) //                bi = 000027, bj = 000001
(PID.TID 0000.0001) //       SOUTH: Tile = 000026, Process = 000001, Comm = put
(PID.TID 0000.0001) //                bi = 000026, bj = 000001
(PID.TID 0000.0001) //       NORTH: Tile = 000026, Process = 000001, Comm = put
(PID.TID 0000.0001) //                bi = 000026, bj = 000001
(PID.TID 0000.0001) // Tile number: 000027 (process no. = 000001)
(PID.TID 0000.0001) //        WEST: Tile = 000026, Process = 000001, Comm = put
(PID.TID 0000.0001) //                bi = 000026, bj = 000001
(PID.TID 0000.0001) //        EAST: Tile = 000028, Process = 000001, Comm = put
(PID.TID 0000.0001) //                bi = 000028, bj = 000001
(PID.TID 0000.0001) //       SOUTH: Tile = 000027, Process = 000001, Comm = put
(PID.TID 0000.0001) //                bi = 000027, bj = 000001
(PID.TID 0000.0001) //       NORTH: Tile = 000027, Process = 000001, Comm = put
(PID.TID 0000.0001) //                bi = 000027, bj = 000001
(PID.TID 0000.0001) // Tile number: 000028 (process no. = 000001)
(PID.TID 0000.0001) //        WEST: Tile = 000027, Process = 000001, Comm = put
(PID.TID 0000.0001) //                bi = 000027, bj = 000001
(PID.TID 0000.0001) //        EAST: Tile = 000029, Process = 000001, Comm = put
(PID.TID 0000.0001) //                bi = 000029, bj = 000001
(PID.TID 0000.0001) //       SOUTH: Tile = 000028, Process = 000001, Comm = put
(PID.TID 0000.0001) //                bi = 000028, bj = 000001
(PID.TID 0000.0001) //       NORTH: Tile = 000028, Process = 000001, Comm = put
(PID.TID 0000.0001) //                bi = 000028, bj = 000001
(PID.TID 0000.0001) // Tile number: 000029 (process no. = 000001)
(PID.TID 0000.0001) //        WEST: Tile = 000028, Process = 000001, Comm = put
(PID.TID 0000.0001) //                bi = 000028, bj = 000001
(PID.TID 0000.0001) //        EAST: Tile = 000030, Process = 000001, Comm = put
(PID.TID 0000.0001) //                bi = 000030, bj = 000001
(PID.TID 0000.0001) //       SOUTH: Tile = 000029, Process = 000001, Comm = put
(PID.TID 0000.0001) //                bi = 000029, bj = 000001
(PID.TID 0000.0001) //       NORTH: Tile = 000029, Process = 000001, Comm = put
(PID.TID 0000.0001) //                bi = 000029, bj = 000001
(PID.TID 0000.0001) // Tile number: 000030 (process no. = 000001)
(PID.TID 0000.0001) //        WEST: Tile = 000029, Process = 000001, Comm = put
(PID.TID 0000.0001) //                bi = 000029, bj = 000001
(PID.TID 0000.0001) //        EAST: Tile = 000031, Process = 000001, Comm = put
(PID.TID 0000.0001) //                bi = 000031, bj = 000001
(PID.TID 0000.0001) //       SOUTH: Tile = 000030, Process = 000001, Comm = put
(PID.TID 0000.0001) //                bi = 000030, bj = 000001
(PID.TID 0000.0001) //       NORTH: Tile = 000030, Process = 000001, Comm = put
(PID.TID 0000.0001) //                bi = 000030, bj = 000001
(PID.TID 0000.0001) // Tile number: 000031 (process no. = 000001)
(PID.TID 0000.0001) //        WEST: Tile = 000030, Process = 000001, Comm = put
(PID.TID 0000.0001) //                bi = 000030, bj = 000001
(PID.TID 0000.0001) //        EAST: Tile = 000032, Process = 000001, Comm = put
(PID.TID 0000.0001) //                bi = 000032, bj = 000001
(PID.TID 0000.0001) //       SOUTH: Tile = 000031, Process = 000001, Comm = put
(PID.TID 0000.0001) //                bi = 000031, bj = 000001
(PID.TID 0000.0001) //       NORTH: Tile = 000031, Process = 000001, Comm = put
(PID.TID 0000.0001) //                bi = 000031, bj = 000001
(PID.TID 0000.0001) // Tile number: 000032 (process no. = 000001)
(PID.TID 0000.0001) //        WEST: Tile = 000031, Process = 000001, Comm = put
(PID.TID 0000.0001) //                bi = 000031, bj = 000001
(PID.TID 0000.0001) //        EAST: Tile = 000033, Process = 000001, Comm = put
(PID.TID 0000.0001) //                bi = 000033, bj = 000001
(PID.TID 0000.0001) //       SOUTH: Tile = 000032, Process = 000001, Comm = put
(PID.TID 0000.0001) //                bi = 000032, bj = 000001
(PID.TID 0000.0001) //       NORTH: Tile = 000032, Process = 000001, Comm = put
(PID.TID 0000.0001) //                bi = 000032, bj = 000001
(PID.TID 0000.0001) // Tile number: 000033 (process no. = 000001)
(PID.TID 0000.0001) //        WEST: Tile = 000032, Process = 000001, Comm = put
(PID.TID 0000.0001) //                bi = 000032, bj = 000001
(PID.TID 0000.0001) //        EAST: Tile = 000034, Process = 000001, Comm = put
(PID.TID 0000.0001) //                bi = 000034, bj = 000001
(PID.TID 0000.0001) //       SOUTH: Tile = 000033, Process = 000001, Comm = put
(PID.TID 0000.0001) //                bi = 000033, bj = 000001
(PID.TID 0000.0001) //       NORTH: Tile = 000033, Process = 000001, Comm = put
(PID.TID 0000.0001) //                bi = 000033, bj = 000001
(PID.TID 0000.0001) // Tile number: 000034 (process no. = 000001)
(PID.TID 0000.0001) //        WEST: Tile = 000033, Process = 000001, Comm = put
(PID.TID 0000.0001) //                bi = 000033, bj = 000001
(PID.TID 0000.0001) //        EAST: Tile = 000035, Process = 000001, Comm = put
(PID.TID 0000.0001) //                bi = 000035, bj = 000001
(PID.TID 0000.0001) //       SOUTH: Tile = 000034, Process = 000001, Comm = put
(PID.TID 0000.0001) //                bi = 000034, bj = 000001
(PID.TID 0000.0001) //       NORTH: Tile = 000034, Process = 000001, Comm = put
(PID.TID 0000.0001) //                bi = 000034, bj = 000001
(PID.TID 0000.0001) // Tile number: 000035 (process no. = 000001)
(PID.TID 0000.0001) //        WEST: Tile = 000034, Process = 000001, Comm = put
(PID.TID 0000.0001) //                bi = 000034, bj = 000001
(PID.TID 0000.0001) //        EAST: Tile = 000036, Process = 000001, Comm = put
(PID.TID 0000.0001) //                bi = 000036, bj = 000001
(PID.TID 0000.0001) //       SOUTH: Tile = 000035, Process = 000001, Comm = put
(PID.TID 0000.0001) //                bi = 000035, bj = 000001
(PID.TID 0000.0001) //       NORTH: Tile = 000035, Process = 000001, Comm = put
(PID.TID 0000.0001) //                bi = 000035, bj = 000001
(PID.TID 0000.0001) // Tile number: 000036 (process no. = 000001)
(PID.TID 0000.0001) //        WEST: Tile = 000035, Process = 000001, Comm = put
(PID.TID 0000.0001) //                bi = 000035, bj = 000001
(PID.TID 0000.0001) //        EAST: Tile = 000037, Process = 000001, Comm = put
(PID.TID 0000.0001) //                bi = 000037, bj = 000001
(PID.TID 0000.0001) //       SOUTH: Tile = 000036, Process = 000001, Comm = put
(PID.TID 0000.0001) //                bi = 000036, bj = 000001
(PID.TID 0000.0001) //       NORTH: Tile = 000036, Process = 000001, Comm = put
(PID.TID 0000.0001) //                bi = 000036, bj = 000001
(PID.TID 0000.0001) // Tile number: 000037 (process no. = 000001)
(PID.TID 0000.0001) //        WEST: Tile = 000036, Process = 000001, Comm = put
(PID.TID 0000.0001) //                bi = 000036, bj = 000001
(PID.TID 0000.0001) //        EAST: Tile = 000038, Process = 000001, Comm = put
(PID.TID 0000.0001) //                bi = 000038, bj = 000001
(PID.TID 0000.0001) //       SOUTH: Tile = 000037, Process = 000001, Comm = put
(PID.TID 0000.0001) //                bi = 000037, bj = 000001
(PID.TID 0000.0001) //       NORTH: Tile = 000037, Process = 000001, Comm = put
(PID.TID 0000.0001) //                bi = 000037, bj = 000001
(PID.TID 0000.0001) // Tile number: 000038 (process no. = 000001)
(PID.TID 0000.0001) //        WEST: Tile = 000037, Process = 000001, Comm = put
(PID.TID 0000.0001) //                bi = 000037, bj = 000001
(PID.TID 0000.0001) //        EAST: Tile = 000039, Process = 000001, Comm = put
(PID.TID 0000.0001) //                bi = 000039, bj = 000001
(PID.TID 0000.0001) //       SOUTH: Tile = 000038, Process = 000001, Comm = put
(PID.TID 0000.0001) //                bi = 000038, bj = 000001
(PID.TID 0000.0001) //       NORTH: Tile = 000038, Process = 000001, Comm = put
(PID.TID 0000.0001) //                bi = 000038, bj = 000001
(PID.TID 0000.0001) // Tile number: 000039 (process no. = 000001)
(PID.TID 0000.0001) //        WEST: Tile = 000038, Process = 000001, Comm = put
(PID.TID 0000.0001) //                bi = 000038, bj = 000001
(PID.TID 0000.0001) //        EAST: Tile = 000040, Process = 000001, Comm = put
(PID.TID 0000.0001) //                bi = 000040, bj = 000001
(PID.TID 0000.0001) //       SOUTH: Tile = 000039, Process = 000001, Comm = put
(PID.TID 0000.0001) //                bi = 000039, bj = 000001
(PID.TID 0000.0001) //       NORTH: Tile = 000039, Process = 000001, Comm = put
(PID.TID 0000.0001) //                bi = 000039, bj = 000001
(PID.TID 0000.0001) // Tile number: 000040 (process no. = 000001)
(PID.TID 0000.0001) //        WEST: Tile = 000039, Process = 000001, Comm = put
(PID.TID 0000.0001) //                bi = 000039, bj = 000001
(PID.TID 0000.0001) //        EAST: Tile = 000041, Process = 000001, Comm = put
(PID.TID 0000.0001) //                bi = 000041, bj = 000001
(PID.TID 0000.0001) //       SOUTH: Tile = 000040, Process = 000001, Comm = put
(PID.TID 0000.0001) //                bi = 000040, bj = 000001
(PID.TID 0000.0001) //       NORTH: Tile = 000040, Process = 000001, Comm = put
(PID.TID 0000.0001) //                bi = 000040, bj = 000001
(PID.TID 0000.0001) // Tile number: 000041 (process no. = 000001)
(PID.TID 0000.0001) //        WEST: Tile = 000040, Process = 000001, Comm = put
(PID.TID 0000.0001) //                bi = 000040, bj = 000001
(PID.TID 0000.0001) //        EAST: Tile = 000042, Process = 000001, Comm = put
(PID.TID 0000.0001) //                bi = 000042, bj = 000001
(PID.TID 0000.0001) //       SOUTH: Tile = 000041, Process = 000001, Comm = put
(PID.TID 0000.0001) //                bi = 000041, bj = 000001
(PID.TID 0000.0001) //       NORTH: Tile = 000041, Process = 000001, Comm = put
(PID.TID 0000.0001) //                bi = 000041, bj = 000001
(PID.TID 0000.0001) // Tile number: 000042 (process no. = 000001)
(PID.TID 0000.0001) //        WEST: Tile = 000041, Process = 000001, Comm = put
(PID.TID 0000.0001) //                bi = 000041, bj = 000001
(PID.TID 0000.0001) //        EAST: Tile = 000043, Process = 000001, Comm = put
(PID.TID 0000.0001) //                bi = 000043, bj = 000001
(PID.TID 0000.0001) //       SOUTH: Tile = 000042, Process = 000001, Comm = put
(PID.TID 0000.0001) //                bi = 000042, bj = 000001
(PID.TID 0000.0001) //       NORTH: Tile = 000042, Process = 000001, Comm = put
(PID.TID 0000.0001) //                bi = 000042, bj = 000001
(PID.TID 0000.0001) // Tile number: 000043 (process no. = 000001)
(PID.TID 0000.0001) //        WEST: Tile = 000042, Process = 000001, Comm = put
(PID.TID 0000.0001) //                bi = 000042, bj = 000001
(PID.TID 0000.0001) //        EAST: Tile = 000044, Process = 000001, Comm = put
(PID.TID 0000.0001) //                bi = 000044, bj = 000001
(PID.TID 0000.0001) //       SOUTH: Tile = 000043, Process = 000001, Comm = put
(PID.TID 0000.0001) //                bi = 000043, bj = 000001
(PID.TID 0000.0001) //       NORTH: Tile = 000043, Process = 000001, Comm = put
(PID.TID 0000.0001) //                bi = 000043, bj = 000001
(PID.TID 0000.0001) // Tile number: 000044 (process no. = 000001)
(PID.TID 0000.0001) //        WEST: Tile = 000043, Process = 000001, Comm = put
(PID.TID 0000.0001) //                bi = 000043, bj = 000001
(PID.TID 0000.0001) //        EAST: Tile = 000045, Process = 000001, Comm = put
(PID.TID 0000.0001) //                bi = 000045, bj = 000001
(PID.TID 0000.0001) //       SOUTH: Tile = 000044, Process = 000001, Comm = put
(PID.TID 0000.0001) //                bi = 000044, bj = 000001
(PID.TID 0000.0001) //       NORTH: Tile = 000044, Process = 000001, Comm = put
(PID.TID 0000.0001) //                bi = 000044, bj = 000001
(PID.TID 0000.0001) // Tile number: 000045 (process no. = 000001)
(PID.TID 0000.0001) //        WEST: Tile = 000044, Process = 000001, Comm = put
(PID.TID 0000.0001) //                bi = 000044, bj = 000001
(PID.TID 0000.0001) //        EAST: Tile = 000046, Process = 000001, Comm = put
(PID.TID 0000.0001) //                bi = 000046, bj = 000001
(PID.TID 0000.0001) //       SOUTH: Tile = 000045, Process = 000001, Comm = put
(PID.TID 0000.0001) //                bi = 000045, bj = 000001
(PID.TID 0000.0001) //       NORTH: Tile = 000045, Process = 000001, Comm = put
(PID.TID 0000.0001) //                bi = 000045, bj = 000001
(PID.TID 0000.0001) // Tile number: 000046 (process no. = 000001)
(PID.TID 0000.0001) //        WEST: Tile = 000045, Process = 000001, Comm = put
(PID.TID 0000.0001) //                bi = 000045, bj = 000001
(PID.TID 0000.0001) //        EAST: Tile = 000047, Process = 000001, Comm = put
(PID.TID 0000.0001) //                bi = 000047, bj = 000001
(PID.TID 0000.0001) //       SOUTH: Tile = 000046, Process = 000001, Comm = put
(PID.TID 0000.0001) //                bi = 000046, bj = 000001
(PID.TID 0000.0001) //       NORTH: Tile = 000046, Process = 000001, Comm = put
(PID.TID 0000.0001) //                bi = 000046, bj = 000001
(PID.TID 0000.0001) // Tile number: 000047 (process no. = 000001)
(PID.TID 0000.0001) //        WEST: Tile = 000046, Process = 000001, Comm = put
(PID.TID 0000.0001) //                bi = 000046, bj = 000001
(PID.TID 0000.0001) //        EAST: Tile = 000048, Process = 000001, Comm = put
(PID.TID 0000.0001) //                bi = 000048, bj = 000001
(PID.TID 0000.0001) //       SOUTH: Tile = 000047, Process = 000001, Comm = put
(PID.TID 0000.0001) //                bi = 000047, bj = 000001
(PID.TID 0000.0001) //       NORTH: Tile = 000047, Process = 000001, Comm = put
(PID.TID 0000.0001) //                bi = 000047, bj = 000001
(PID.TID 0000.0001) // Tile number: 000048 (process no. = 000001)
(PID.TID 0000.0001) //        WEST: Tile = 000047, Process = 000001, Comm = put
(PID.TID 0000.0001) //                bi = 000047, bj = 000001
(PID.TID 0000.0001) //        EAST: Tile = 000049, Process = 000001, Comm = put
(PID.TID 0000.0001) //                bi = 000049, bj = 000001
(PID.TID 0000.0001) //       SOUTH: Tile = 000048, Process = 000001, Comm = put
(PID.TID 0000.0001) //                bi = 000048, bj = 000001
(PID.TID 0000.0001) //       NORTH: Tile = 000048, Process = 000001, Comm = put
(PID.TID 0000.0001) //                bi = 000048, bj = 000001
(PID.TID 0000.0001) // Tile number: 000049 (process no. = 000001)
(PID.TID 0000.0001) //        WEST: Tile = 000048, Process = 000001, Comm = put
(PID.TID 0000.0001) //                bi = 000048, bj = 000001
(PID.TID 0000.0001) //        EAST: Tile = 000050, Process = 000001, Comm = put
(PID.TID 0000.0001) //                bi = 000050, bj = 000001
(PID.TID 0000.0001) //       SOUTH: Tile = 000049, Process = 000001, Comm = put
(PID.TID 0000.0001) //                bi = 000049, bj = 000001
(PID.TID 0000.0001) //       NORTH: Tile = 000049, Process = 000001, Comm = put
(PID.TID 0000.0001) //                bi = 000049, bj = 000001
(PID.TID 0000.0001) // Tile number: 000050 (process no. = 000001)
(PID.TID 0000.0001) //        WEST: Tile = 000049, Process = 000001, Comm = put
(PID.TID 0000.0001) //                bi = 000049, bj = 000001
(PID.TID 0000.0001) //        EAST: Tile = 000051, Process = 000001, Comm = put
(PID.TID 0000.0001) //                bi = 000051, bj = 000001
(PID.TID 0000.0001) //       SOUTH: Tile = 000050, Process = 000001, Comm = put
(PID.TID 0000.0001) //                bi = 000050, bj = 000001
(PID.TID 0000.0001) //       NORTH: Tile = 000050, Process = 000001, Comm = put
(PID.TID 0000.0001) //                bi = 000050, bj = 000001
(PID.TID 0000.0001) // Tile number: 000051 (process no. = 000001)
(PID.TID 0000.0001) //        WEST: Tile = 000050, Process = 000001, Comm = put
(PID.TID 0000.0001) //                bi = 000050, bj = 000001
(PID.TID 0000.0001) //        EAST: Tile = 000052, Process = 000001, Comm = put
(PID.TID 0000.0001) //                bi = 000052, bj = 000001
(PID.TID 0000.0001) //       SOUTH: Tile = 000051, Process = 000001, Comm = put
(PID.TID 0000.0001) //                bi = 000051, bj = 000001
(PID.TID 0000.0001) //       NORTH: Tile = 000051, Process = 000001, Comm = put
(PID.TID 0000.0001) //                bi = 000051, bj = 000001
(PID.TID 0000.0001) // Tile number: 000052 (process no. = 000001)
(PID.TID 0000.0001) //        WEST: Tile = 000051, Process = 000001, Comm = put
(PID.TID 0000.0001) //                bi = 000051, bj = 000001
(PID.TID 0000.0001) //        EAST: Tile = 000053, Process = 000001, Comm = put
(PID.TID 0000.0001) //                bi = 000053, bj = 000001
(PID.TID 0000.0001) //       SOUTH: Tile = 000052, Process = 000001, Comm = put
(PID.TID 0000.0001) //                bi = 000052, bj = 000001
(PID.TID 0000.0001) //       NORTH: Tile = 000052, Process = 000001, Comm = put
(PID.TID 0000.0001) //                bi = 000052, bj = 000001
(PID.TID 0000.0001) // Tile number: 000053 (process no. = 000001)
(PID.TID 0000.0001) //        WEST: Tile = 000052, Process = 000001, Comm = put
(PID.TID 0000.0001) //                bi = 000052, bj = 000001
(PID.TID 0000.0001) //        EAST: Tile = 000054, Process = 000001, Comm = put
(PID.TID 0000.0001) //                bi = 000054, bj = 000001
(PID.TID 0000.0001) //       SOUTH: Tile = 000053, Process = 000001, Comm = put
(PID.TID 0000.0001) //                bi = 000053, bj = 000001
(PID.TID 0000.0001) //       NORTH: Tile = 000053, Process = 000001, Comm = put
(PID.TID 0000.0001) //                bi = 000053, bj = 000001
(PID.TID 0000.0001) // Tile number: 000054 (process no. = 000001)
(PID.TID 0000.0001) //        WEST: Tile = 000053, Process = 000001, Comm = put
(PID.TID 0000.0001) //                bi = 000053, bj = 000001
(PID.TID 0000.0001) //        EAST: Tile = 000055, Process = 000001, Comm = put
(PID.TID 0000.0001) //                bi = 000055, bj = 000001
(PID.TID 0000.0001) //       SOUTH: Tile = 000054, Process = 000001, Comm = put
(PID.TID 0000.0001) //                bi = 000054, bj = 000001
(PID.TID 0000.0001) //       NORTH: Tile = 000054, Process = 000001, Comm = put
(PID.TID 0000.0001) //                bi = 000054, bj = 000001
(PID.TID 0000.0001) // Tile number: 000055 (process no. = 000001)
(PID.TID 0000.0001) //        WEST: Tile = 000054, Process = 000001, Comm = put
(PID.TID 0000.0001) //                bi = 000054, bj = 000001
(PID.TID 0000.0001) //        EAST: Tile = 000056, Process = 000001, Comm = put
(PID.TID 0000.0001) //                bi = 000056, bj = 000001
(PID.TID 0000.0001) //       SOUTH: Tile = 000055, Process = 000001, Comm = put
(PID.TID 0000.0001) //                bi = 000055, bj = 000001
(PID.TID 0000.0001) //       NORTH: Tile = 000055, Process = 000001, Comm = put
(PID.TID 0000.0001) //                bi = 000055, bj = 000001
(PID.TID 0000.0001) // Tile number: 000056 (process no. = 000001)
(PID.TID 0000.0001) //        WEST: Tile = 000055, Process = 000001, Comm = put
(PID.TID 0000.0001) //                bi = 000055, bj = 000001
(PID.TID 0000.0001) //        EAST: Tile = 000057, Process = 000001, Comm = put
(PID.TID 0000.0001) //                bi = 000057, bj = 000001
(PID.TID 0000.0001) //       SOUTH: Tile = 000056, Process = 000001, Comm = put
(PID.TID 0000.0001) //                bi = 000056, bj = 000001
(PID.TID 0000.0001) //       NORTH: Tile = 000056, Process = 000001, Comm = put
(PID.TID 0000.0001) //                bi = 000056, bj = 000001
(PID.TID 0000.0001) // Tile number: 000057 (process no. = 000001)
(PID.TID 0000.0001) //        WEST: Tile = 000056, Process = 000001, Comm = put
(PID.TID 0000.0001) //                bi = 000056, bj = 000001
(PID.TID 0000.0001) //        EAST: Tile = 000058, Process = 000001, Comm = put
(PID.TID 0000.0001) //                bi = 000058, bj = 000001
(PID.TID 0000.0001) //       SOUTH: Tile = 000057, Process = 000001, Comm = put
(PID.TID 0000.0001) //                bi = 000057, bj = 000001
(PID.TID 0000.0001) //       NORTH: Tile = 000057, Process = 000001, Comm = put
(PID.TID 0000.0001) //                bi = 000057, bj = 000001
(PID.TID 0000.0001) // Tile number: 000058 (process no. = 000001)
(PID.TID 0000.0001) //        WEST: Tile = 000057, Process = 000001, Comm = put
(PID.TID 0000.0001) //                bi = 000057, bj = 000001
(PID.TID 0000.0001) //        EAST: Tile = 000059, Process = 000001, Comm = put
(PID.TID 0000.0001) //                bi = 000059, bj = 000001
(PID.TID 0000.0001) //       SOUTH: Tile = 000058, Process = 000001, Comm = put
(PID.TID 0000.0001) //                bi = 000058, bj = 000001
(PID.TID 0000.0001) //       NORTH: Tile = 000058, Process = 000001, Comm = put
(PID.TID 0000.0001) //                bi = 000058, bj = 000001
(PID.TID 0000.0001) // Tile number: 000059 (process no. = 000001)
(PID.TID 0000.0001) //        WEST: Tile = 000058, Process = 000001, Comm = put
(PID.TID 0000.0001) //                bi = 000058, bj = 000001
(PID.TID 0000.0001) //        EAST: Tile = 000060, Process = 000001, Comm = put
(PID.TID 0000.0001) //                bi = 000060, bj = 000001
(PID.TID 0000.0001) //       SOUTH: Tile = 000059, Process = 000001, Comm = put
(PID.TID 0000.0001) //                bi = 000059, bj = 000001
(PID.TID 0000.0001) //       NORTH: Tile = 000059, Process = 000001, Comm = put
(PID.TID 0000.0001) //                bi = 000059, bj = 000001
(PID.TID 0000.0001) // Tile number: 000060 (process no. = 000001)
(PID.TID 0000.0001) //        WEST: Tile = 000059, Process = 000001, Comm = put
(PID.TID 0000.0001) //                bi = 000059, bj = 000001
(PID.TID 0000.0001) //        EAST: Tile = 000061, Process = 000001, Comm = put
(PID.TID 0000.0001) //                bi = 000061, bj = 000001
(PID.TID 0000.0001) //       SOUTH: Tile = 000060, Process = 000001, Comm = put
(PID.TID 0000.0001) //                bi = 000060, bj = 000001
(PID.TID 0000.0001) //       NORTH: Tile = 000060, Process = 000001, Comm = put
(PID.TID 0000.0001) //                bi = 000060, bj = 000001
(PID.TID 0000.0001) // Tile number: 000061 (process no. = 000001)
(PID.TID 0000.0001) //        WEST: Tile = 000060, Process = 000001, Comm = put
(PID.TID 0000.0001) //                bi = 000060, bj = 000001
(PID.TID 0000.0001) //        EAST: Tile = 000062, Process = 000001, Comm = put
(PID.TID 0000.0001) //                bi = 000062, bj = 000001
(PID.TID 0000.0001) //       SOUTH: Tile = 000061, Process = 000001, Comm = put
(PID.TID 0000.0001) //                bi = 000061, bj = 000001
(PID.TID 0000.0001) //       NORTH: Tile = 000061, Process = 000001, Comm = put
(PID.TID 0000.0001) //                bi = 000061, bj = 000001
(PID.TID 0000.0001) // Tile number: 000062 (process no. = 000001)
(PID.TID 0000.0001) //        WEST: Tile = 000061, Process = 000001, Comm = put
(PID.TID 0000.0001) //                bi = 000061, bj = 000001
(PID.TID 0000.0001) //        EAST: Tile = 000063, Process = 000001, Comm = put
(PID.TID 0000.0001) //                bi = 000063, bj = 000001
(PID.TID 0000.0001) //       SOUTH: Tile = 000062, Process = 000001, Comm = put
(PID.TID 0000.0001) //                bi = 000062, bj = 000001
(PID.TID 0000.0001) //       NORTH: Tile = 000062, Process = 000001, Comm = put
(PID.TID 0000.0001) //                bi = 000062, bj = 000001
(PID.TID 0000.0001) // Tile number: 000063 (process no. = 000001)
(PID.TID 0000.0001) //        WEST: Tile = 000062, Process = 000001, Comm = put
(PID.TID 0000.0001) //                bi = 000062, bj = 000001
(PID.TID 0000.0001) //        EAST: Tile = 000064, Process = 000001, Comm = put
(PID.TID 0000.0001) //                bi = 000064, bj = 000001
(PID.TID 0000.0001) //       SOUTH: Tile = 000063, Process = 000001, Comm = put
(PID.TID 0000.0001) //                bi = 000063, bj = 000001
(PID.TID 0000.0001) //       NORTH: Tile = 000063, Process = 000001, Comm = put
(PID.TID 0000.0001) //                bi = 000063, bj = 000001
(PID.TID 0000.0001) // Tile number: 000064 (process no. = 000001)
(PID.TID 0000.0001) //        WEST: Tile = 000063, Process = 000001, Comm = put
(PID.TID 0000.0001) //                bi = 000063, bj = 000001
(PID.TID 0000.0001) //        EAST: Tile = 000065, Process = 000001, Comm = put
(PID.TID 0000.0001) //                bi = 000065, bj = 000001
(PID.TID 0000.0001) //       SOUTH: Tile = 000064, Process = 000001, Comm = put
(PID.TID 0000.0001) //                bi = 000064, bj = 000001
(PID.TID 0000.0001) //       NORTH: Tile = 000064, Process = 000001, Comm = put
(PID.TID 0000.0001) //                bi = 000064, bj = 000001
(PID.TID 0000.0001) // Tile number: 000065 (process no. = 000001)
(PID.TID 0000.0001) //        WEST: Tile = 000064, Process = 000001, Comm = put
(PID.TID 0000.0001) //                bi = 000064, bj = 000001
(PID.TID 0000.0001) //        EAST: Tile = 000066, Process = 000001, Comm = put
(PID.TID 0000.0001) //                bi = 000066, bj = 000001
(PID.TID 0000.0001) //       SOUTH: Tile = 000065, Process = 000001, Comm = put
(PID.TID 0000.0001) //                bi = 000065, bj = 000001
(PID.TID 0000.0001) //       NORTH: Tile = 000065, Process = 000001, Comm = put
(PID.TID 0000.0001) //                bi = 000065, bj = 000001
(PID.TID 0000.0001) // Tile number: 000066 (process no. = 000001)
(PID.TID 0000.0001) //        WEST: Tile = 000065, Process = 000001, Comm = put
(PID.TID 0000.0001) //                bi = 000065, bj = 000001
(PID.TID 0000.0001) //        EAST: Tile = 000067, Process = 000001, Comm = put
(PID.TID 0000.0001) //                bi = 000067, bj = 000001
(PID.TID 0000.0001) //       SOUTH: Tile = 000066, Process = 000001, Comm = put
(PID.TID 0000.0001) //                bi = 000066, bj = 000001
(PID.TID 0000.0001) //       NORTH: Tile = 000066, Process = 000001, Comm = put
(PID.TID 0000.0001) //                bi = 000066, bj = 000001
(PID.TID 0000.0001) // Tile number: 000067 (process no. = 000001)
(PID.TID 0000.0001) //        WEST: Tile = 000066, Process = 000001, Comm = put
(PID.TID 0000.0001) //                bi = 000066, bj = 000001
(PID.TID 0000.0001) //        EAST: Tile = 000068, Process = 000001, Comm = put
(PID.TID 0000.0001) //                bi = 000068, bj = 000001
(PID.TID 0000.0001) //       SOUTH: Tile = 000067, Process = 000001, Comm = put
(PID.TID 0000.0001) //                bi = 000067, bj = 000001
(PID.TID 0000.0001) //       NORTH: Tile = 000067, Process = 000001, Comm = put
(PID.TID 0000.0001) //                bi = 000067, bj = 000001
(PID.TID 0000.0001) // Tile number: 000068 (process no. = 000001)
(PID.TID 0000.0001) //        WEST: Tile = 000067, Process = 000001, Comm = put
(PID.TID 0000.0001) //                bi = 000067, bj = 000001
(PID.TID 0000.0001) //        EAST: Tile = 000069, Process = 000001, Comm = put
(PID.TID 0000.0001) //                bi = 000069, bj = 000001
(PID.TID 0000.0001) //       SOUTH: Tile = 000068, Process = 000001, Comm = put
(PID.TID 0000.0001) //                bi = 000068, bj = 000001
(PID.TID 0000.0001) //       NORTH: Tile = 000068, Process = 000001, Comm = put
(PID.TID 0000.0001) //                bi = 000068, bj = 000001
(PID.TID 0000.0001) // Tile number: 000069 (process no. = 000001)
(PID.TID 0000.0001) //        WEST: Tile = 000068, Process = 000001, Comm = put
(PID.TID 0000.0001) //                bi = 000068, bj = 000001
(PID.TID 0000.0001) //        EAST: Tile = 000070, Process = 000001, Comm = put
(PID.TID 0000.0001) //                bi = 000070, bj = 000001
(PID.TID 0000.0001) //       SOUTH: Tile = 000069, Process = 000001, Comm = put
(PID.TID 0000.0001) //                bi = 000069, bj = 000001
(PID.TID 0000.0001) //       NORTH: Tile = 000069, Process = 000001, Comm = put
(PID.TID 0000.0001) //                bi = 000069, bj = 000001
(PID.TID 0000.0001) // Tile number: 000070 (process no. = 000001)
(PID.TID 0000.0001) //        WEST: Tile = 000069, Process = 000001, Comm = put
(PID.TID 0000.0001) //                bi = 000069, bj = 000001
(PID.TID 0000.0001) //        EAST: Tile = 000071, Process = 000001, Comm = put
(PID.TID 0000.0001) //                bi = 000071, bj = 000001
(PID.TID 0000.0001) //       SOUTH: Tile = 000070, Process = 000001, Comm = put
(PID.TID 0000.0001) //                bi = 000070, bj = 000001
(PID.TID 0000.0001) //       NORTH: Tile = 000070, Process = 000001, Comm = put
(PID.TID 0000.0001) //                bi = 000070, bj = 000001
(PID.TID 0000.0001) // Tile number: 000071 (process no. = 000001)
(PID.TID 0000.0001) //        WEST: Tile = 000070, Process = 000001, Comm = put
(PID.TID 0000.0001) //                bi = 000070, bj = 000001
(PID.TID 0000.0001) //        EAST: Tile = 000072, Process = 000001, Comm = put
(PID.TID 0000.0001) //                bi = 000072, bj = 000001
(PID.TID 0000.0001) //       SOUTH: Tile = 000071, Process = 000001, Comm = put
(PID.TID 0000.0001) //                bi = 000071, bj = 000001
(PID.TID 0000.0001) //       NORTH: Tile = 000071, Process = 000001, Comm = put
(PID.TID 0000.0001) //                bi = 000071, bj = 000001
(PID.TID 0000.0001) // Tile number: 000072 (process no. = 000001)
(PID.TID 0000.0001) //        WEST: Tile = 000071, Process = 000001, Comm = put
(PID.TID 0000.0001) //                bi = 000071, bj = 000001
(PID.TID 0000.0001) //        EAST: Tile = 000073, Process = 000001, Comm = put
(PID.TID 0000.0001) //                bi = 000073, bj = 000001
(PID.TID 0000.0001) //       SOUTH: Tile = 000072, Process = 000001, Comm = put
(PID.TID 0000.0001) //                bi = 000072, bj = 000001
(PID.TID 0000.0001) //       NORTH: Tile = 000072, Process = 000001, Comm = put
(PID.TID 0000.0001) //                bi = 000072, bj = 000001
(PID.TID 0000.0001) // Tile number: 000073 (process no. = 000001)
(PID.TID 0000.0001) //        WEST: Tile = 000072, Process = 000001, Comm = put
(PID.TID 0000.0001) //                bi = 000072, bj = 000001
(PID.TID 0000.0001) //        EAST: Tile = 000074, Process = 000001, Comm = put
(PID.TID 0000.0001) //                bi = 000074, bj = 000001
(PID.TID 0000.0001) //       SOUTH: Tile = 000073, Process = 000001, Comm = put
(PID.TID 0000.0001) //                bi = 000073, bj = 000001
(PID.TID 0000.0001) //       NORTH: Tile = 000073, Process = 000001, Comm = put
(PID.TID 0000.0001) //                bi = 000073, bj = 000001
(PID.TID 0000.0001) // Tile number: 000074 (process no. = 000001)
(PID.TID 0000.0001) //        WEST: Tile = 000073, Process = 000001, Comm = put
(PID.TID 0000.0001) //                bi = 000073, bj = 000001
(PID.TID 0000.0001) //        EAST: Tile = 000075, Process = 000001, Comm = put
(PID.TID 0000.0001) //                bi = 000075, bj = 000001
(PID.TID 0000.0001) //       SOUTH: Tile = 000074, Process = 000001, Comm = put
(PID.TID 0000.0001) //                bi = 000074, bj = 000001
(PID.TID 0000.0001) //       NORTH: Tile = 000074, Process = 000001, Comm = put
(PID.TID 0000.0001) //                bi = 000074, bj = 000001
(PID.TID 0000.0001) // Tile number: 000075 (process no. = 000001)
(PID.TID 0000.0001) //        WEST: Tile = 000074, Process = 000001, Comm = put
(PID.TID 0000.0001) //                bi = 000074, bj = 000001
(PID.TID 0000.0001) //        EAST: Tile = 000076, Process = 000001, Comm = put
(PID.TID 0000.0001) //                bi = 000076, bj = 000001
(PID.TID 0000.0001) //       SOUTH: Tile = 000075, Process = 000001, Comm = put
(PID.TID 0000.0001) //                bi = 000075, bj = 000001
(PID.TID 0000.0001) //       NORTH: Tile = 000075, Process = 000001, Comm = put
(PID.TID 0000.0001) //                bi = 000075, bj = 000001
(PID.TID 0000.0001) // Tile number: 000076 (process no. = 000001)
(PID.TID 0000.0001) //        WEST: Tile = 000075, Process = 000001, Comm = put
(PID.TID 0000.0001) //                bi = 000075, bj = 000001
(PID.TID 0000.0001) //        EAST: Tile = 000077, Process = 000001, Comm = put
(PID.TID 0000.0001) //                bi = 000077, bj = 000001
(PID.TID 0000.0001) //       SOUTH: Tile = 000076, Process = 000001, Comm = put
(PID.TID 0000.0001) //                bi = 000076, bj = 000001
(PID.TID 0000.0001) //       NORTH: Tile = 000076, Process = 000001, Comm = put
(PID.TID 0000.0001) //                bi = 000076, bj = 000001
(PID.TID 0000.0001) // Tile number: 000077 (process no. = 000001)
(PID.TID 0000.0001) //        WEST: Tile = 000076, Process = 000001, Comm = put
(PID.TID 0000.0001) //                bi = 000076, bj = 000001
(PID.TID 0000.0001) //        EAST: Tile = 000078, Process = 000001, Comm = put
(PID.TID 0000.0001) //                bi = 000078, bj = 000001
(PID.TID 0000.0001) //       SOUTH: Tile = 000077, Process = 000001, Comm = put
(PID.TID 0000.0001) //                bi = 000077, bj = 000001
(PID.TID 0000.0001) //       NORTH: Tile = 000077, Process = 000001, Comm = put
(PID.TID 0000.0001) //                bi = 000077, bj = 000001
(PID.TID 0000.0001) // Tile number: 000078 (process no. = 000001)
(PID.TID 0000.0001) //        WEST: Tile = 000077, Process = 000001, Comm = put
(PID.TID 0000.0001) //                bi = 000077, bj = 000001
(PID.TID 0000.0001) //        EAST: Tile = 000079, Process = 000001, Comm = put
(PID.TID 0000.0001) //                bi = 000079, bj = 000001
(PID.TID 0000.0001) //       SOUTH: Tile = 000078, Process = 000001, Comm = put
(PID.TID 0000.0001) //                bi = 000078, bj = 000001
(PID.TID 0000.0001) //       NORTH: Tile = 000078, Process = 000001, Comm = put
(PID.TID 0000.0001) //                bi = 000078, bj = 000001
(PID.TID 0000.0001) // Tile number: 000079 (process no. = 000001)
(PID.TID 0000.0001) //        WEST: Tile = 000078, Process = 000001, Comm = put
(PID.TID 0000.0001) //                bi = 000078, bj = 000001
(PID.TID 0000.0001) //        EAST: Tile = 000080, Process = 000001, Comm = put
(PID.TID 0000.0001) //                bi = 000080, bj = 000001
(PID.TID 0000.0001) //       SOUTH: Tile = 000079, Process = 000001, Comm = put
(PID.TID 0000.0001) //                bi = 000079, bj = 000001
(PID.TID 0000.0001) //       NORTH: Tile = 000079, Process = 000001, Comm = put
(PID.TID 0000.0001) //                bi = 000079, bj = 000001
(PID.TID 0000.0001) // Tile number: 000080 (process no. = 000001)
(PID.TID 0000.0001) //        WEST: Tile = 000079, Process = 000001, Comm = put
(PID.TID 0000.0001) //                bi = 000079, bj = 000001
(PID.TID 0000.0001) //        EAST: Tile = 000081, Process = 000001, Comm = put
(PID.TID 0000.0001) //                bi = 000081, bj = 000001
(PID.TID 0000.0001) //       SOUTH: Tile = 000080, Process = 000001, Comm = put
(PID.TID 0000.0001) //                bi = 000080, bj = 000001
(PID.TID 0000.0001) //       NORTH: Tile = 000080, Process = 000001, Comm = put
(PID.TID 0000.0001) //                bi = 000080, bj = 000001
(PID.TID 0000.0001) // Tile number: 000081 (process no. = 000001)
(PID.TID 0000.0001) //        WEST: Tile = 000080, Process = 000001, Comm = put
(PID.TID 0000.0001) //                bi = 000080, bj = 000001
(PID.TID 0000.0001) //        EAST: Tile = 000082, Process = 000001, Comm = put
(PID.TID 0000.0001) //                bi = 000082, bj = 000001
(PID.TID 0000.0001) //       SOUTH: Tile = 000081, Process = 000001, Comm = put
(PID.TID 0000.0001) //                bi = 000081, bj = 000001
(PID.TID 0000.0001) //       NORTH: Tile = 000081, Process = 000001, Comm = put
(PID.TID 0000.0001) //                bi = 000081, bj = 000001
(PID.TID 0000.0001) // Tile number: 000082 (process no. = 000001)
(PID.TID 0000.0001) //        WEST: Tile = 000081, Process = 000001, Comm = put
(PID.TID 0000.0001) //                bi = 000081, bj = 000001
(PID.TID 0000.0001) //        EAST: Tile = 000083, Process = 000001, Comm = put
(PID.TID 0000.0001) //                bi = 000083, bj = 000001
(PID.TID 0000.0001) //       SOUTH: Tile = 000082, Process = 000001, Comm = put
(PID.TID 0000.0001) //                bi = 000082, bj = 000001
(PID.TID 0000.0001) //       NORTH: Tile = 000082, Process = 000001, Comm = put
(PID.TID 0000.0001) //                bi = 000082, bj = 000001
(PID.TID 0000.0001) // Tile number: 000083 (process no. = 000001)
(PID.TID 0000.0001) //        WEST: Tile = 000082, Process = 000001, Comm = put
(PID.TID 0000.0001) //                bi = 000082, bj = 000001
(PID.TID 0000.0001) //        EAST: Tile = 000084, Process = 000001, Comm = put
(PID.TID 0000.0001) //                bi = 000084, bj = 000001
(PID.TID 0000.0001) //       SOUTH: Tile = 000083, Process = 000001, Comm = put
(PID.TID 0000.0001) //                bi = 000083, bj = 000001
(PID.TID 0000.0001) //       NORTH: Tile = 000083, Process = 000001, Comm = put
(PID.TID 0000.0001) //                bi = 000083, bj = 000001
(PID.TID 0000.0001) // Tile number: 000084 (process no. = 000001)
(PID.TID 0000.0001) //        WEST: Tile = 000083, Process = 000001, Comm = put
(PID.TID 0000.0001) //                bi = 000083, bj = 000001
(PID.TID 0000.0001) //        EAST: Tile = 000085, Process = 000001, Comm = put
(PID.TID 0000.0001) //                bi = 000085, bj = 000001
(PID.TID 0000.0001) //       SOUTH: Tile = 000084, Process = 000001, Comm = put
(PID.TID 0000.0001) //                bi = 000084, bj = 000001
(PID.TID 0000.0001) //       NORTH: Tile = 000084, Process = 000001, Comm = put
(PID.TID 0000.0001) //                bi = 000084, bj = 000001
(PID.TID 0000.0001) // Tile number: 000085 (process no. = 000001)
(PID.TID 0000.0001) //        WEST: Tile = 000084, Process = 000001, Comm = put
(PID.TID 0000.0001) //                bi = 000084, bj = 000001
(PID.TID 0000.0001) //        EAST: Tile = 000086, Process = 000001, Comm = put
(PID.TID 0000.0001) //                bi = 000086, bj = 000001
(PID.TID 0000.0001) //       SOUTH: Tile = 000085, Process = 000001, Comm = put
(PID.TID 0000.0001) //                bi = 000085, bj = 000001
(PID.TID 0000.0001) //       NORTH: Tile = 000085, Process = 000001, Comm = put
(PID.TID 0000.0001) //                bi = 000085, bj = 000001
(PID.TID 0000.0001) // Tile number: 000086 (process no. = 000001)
(PID.TID 0000.0001) //        WEST: Tile = 000085, Process = 000001, Comm = put
(PID.TID 0000.0001) //                bi = 000085, bj = 000001
(PID.TID 0000.0001) //        EAST: Tile = 000087, Process = 000001, Comm = put
(PID.TID 0000.0001) //                bi = 000087, bj = 000001
(PID.TID 0000.0001) //       SOUTH: Tile = 000086, Process = 000001, Comm = put
(PID.TID 0000.0001) //                bi = 000086, bj = 000001
(PID.TID 0000.0001) //       NORTH: Tile = 000086, Process = 000001, Comm = put
(PID.TID 0000.0001) //                bi = 000086, bj = 000001
(PID.TID 0000.0001) // Tile number: 000087 (process no. = 000001)
(PID.TID 0000.0001) //        WEST: Tile = 000086, Process = 000001, Comm = put
(PID.TID 0000.0001) //                bi = 000086, bj = 000001
(PID.TID 0000.0001) //        EAST: Tile = 000088, Process = 000001, Comm = put
(PID.TID 0000.0001) //                bi = 000088, bj = 000001
(PID.TID 0000.0001) //       SOUTH: Tile = 000087, Process = 000001, Comm = put
(PID.TID 0000.0001) //                bi = 000087, bj = 000001
(PID.TID 0000.0001) //       NORTH: Tile = 000087, Process = 000001, Comm = put
(PID.TID 0000.0001) //                bi = 000087, bj = 000001
(PID.TID 0000.0001) // Tile number: 000088 (process no. = 000001)
(PID.TID 0000.0001) //        WEST: Tile = 000087, Process = 000001, Comm = put
(PID.TID 0000.0001) //                bi = 000087, bj = 000001
(PID.TID 0000.0001) //        EAST: Tile = 000089, Process = 000001, Comm = put
(PID.TID 0000.0001) //                bi = 000089, bj = 000001
(PID.TID 0000.0001) //       SOUTH: Tile = 000088, Process = 000001, Comm = put
(PID.TID 0000.0001) //                bi = 000088, bj = 000001
(PID.TID 0000.0001) //       NORTH: Tile = 000088, Process = 000001, Comm = put
(PID.TID 0000.0001) //                bi = 000088, bj = 000001
(PID.TID 0000.0001) // Tile number: 000089 (process no. = 000001)
(PID.TID 0000.0001) //        WEST: Tile = 000088, Process = 000001, Comm = put
(PID.TID 0000.0001) //                bi = 000088, bj = 000001
(PID.TID 0000.0001) //        EAST: Tile = 000090, Process = 000001, Comm = put
(PID.TID 0000.0001) //                bi = 000090, bj = 000001
(PID.TID 0000.0001) //       SOUTH: Tile = 000089, Process = 000001, Comm = put
(PID.TID 0000.0001) //                bi = 000089, bj = 000001
(PID.TID 0000.0001) //       NORTH: Tile = 000089, Process = 000001, Comm = put
(PID.TID 0000.0001) //                bi = 000089, bj = 000001
(PID.TID 0000.0001) // Tile number: 000090 (process no. = 000001)
(PID.TID 0000.0001) //        WEST: Tile = 000089, Process = 000001, Comm = put
(PID.TID 0000.0001) //                bi = 000089, bj = 000001
(PID.TID 0000.0001) //        EAST: Tile = 000091, Process = 000001, Comm = put
(PID.TID 0000.0001) //                bi = 000091, bj = 000001
(PID.TID 0000.0001) //       SOUTH: Tile = 000090, Process = 000001, Comm = put
(PID.TID 0000.0001) //                bi = 000090, bj = 000001
(PID.TID 0000.0001) //       NORTH: Tile = 000090, Process = 000001, Comm = put
(PID.TID 0000.0001) //                bi = 000090, bj = 000001
(PID.TID 0000.0001) // Tile number: 000091 (process no. = 000001)
(PID.TID 0000.0001) //        WEST: Tile = 000090, Process = 000001, Comm = put
(PID.TID 0000.0001) //                bi = 000090, bj = 000001
(PID.TID 0000.0001) //        EAST: Tile = 000092, Process = 000001, Comm = put
(PID.TID 0000.0001) //                bi = 000092, bj = 000001
(PID.TID 0000.0001) //       SOUTH: Tile = 000091, Process = 000001, Comm = put
(PID.TID 0000.0001) //                bi = 000091, bj = 000001
(PID.TID 0000.0001) //       NORTH: Tile = 000091, Process = 000001, Comm = put
(PID.TID 0000.0001) //                bi = 000091, bj = 000001
(PID.TID 0000.0001) // Tile number: 000092 (process no. = 000001)
(PID.TID 0000.0001) //        WEST: Tile = 000091, Process = 000001, Comm = put
(PID.TID 0000.0001) //                bi = 000091, bj = 000001
(PID.TID 0000.0001) //        EAST: Tile = 000093, Process = 000001, Comm = put
(PID.TID 0000.0001) //                bi = 000093, bj = 000001
(PID.TID 0000.0001) //       SOUTH: Tile = 000092, Process = 000001, Comm = put
(PID.TID 0000.0001) //                bi = 000092, bj = 000001
(PID.TID 0000.0001) //       NORTH: Tile = 000092, Process = 000001, Comm = put
(PID.TID 0000.0001) //                bi = 000092, bj = 000001
(PID.TID 0000.0001) // Tile number: 000093 (process no. = 000001)
(PID.TID 0000.0001) //        WEST: Tile = 000092, Process = 000001, Comm = put
(PID.TID 0000.0001) //                bi = 000092, bj = 000001
(PID.TID 0000.0001) //        EAST: Tile = 000094, Process = 000001, Comm = put
(PID.TID 0000.0001) //                bi = 000094, bj = 000001
(PID.TID 0000.0001) //       SOUTH: Tile = 000093, Process = 000001, Comm = put
(PID.TID 0000.0001) //                bi = 000093, bj = 000001
(PID.TID 0000.0001) //       NORTH: Tile = 000093, Process = 000001, Comm = put
(PID.TID 0000.0001) //                bi = 000093, bj = 000001
(PID.TID 0000.0001) // Tile number: 000094 (process no. = 000001)
(PID.TID 0000.0001) //        WEST: Tile = 000093, Process = 000001, Comm = put
(PID.TID 0000.0001) //                bi = 000093, bj = 000001
(PID.TID 0000.0001) //        EAST: Tile = 000095, Process = 000001, Comm = put
(PID.TID 0000.0001) //                bi = 000095, bj = 000001
(PID.TID 0000.0001) //       SOUTH: Tile = 000094, Process = 000001, Comm = put
(PID.TID 0000.0001) //                bi = 000094, bj = 000001
(PID.TID 0000.0001) //       NORTH: Tile = 000094, Process = 000001, Comm = put
(PID.TID 0000.0001) //                bi = 000094, bj = 000001
(PID.TID 0000.0001) // Tile number: 000095 (process no. = 000001)
(PID.TID 0000.0001) //        WEST: Tile = 000094, Process = 000001, Comm = put
(PID.TID 0000.0001) //                bi = 000094, bj = 000001
(PID.TID 0000.0001) //        EAST: Tile = 000096, Process = 000001, Comm = put
(PID.TID 0000.0001) //                bi = 000096, bj = 000001
(PID.TID 0000.0001) //       SOUTH: Tile = 000095, Process = 000001, Comm = put
(PID.TID 0000.0001) //                bi = 000095, bj = 000001
(PID.TID 0000.0001) //       NORTH: Tile = 000095, Process = 000001, Comm = put
(PID.TID 0000.0001) //                bi = 000095, bj = 000001
(PID.TID 0000.0001) // Tile number: 000096 (process no. = 000001)
(PID.TID 0000.0001) //        WEST: Tile = 000095, Process = 000001, Comm = put
(PID.TID 0000.0001) //                bi = 000095, bj = 000001
(PID.TID 0000.0001) //        EAST: Tile = 000097, Process = 000001, Comm = put
(PID.TID 0000.0001) //                bi = 000097, bj = 000001
(PID.TID 0000.0001) //       SOUTH: Tile = 000096, Process = 000001, Comm = put
(PID.TID 0000.0001) //                bi = 000096, bj = 000001
(PID.TID 0000.0001) //       NORTH: Tile = 000096, Process = 000001, Comm = put
(PID.TID 0000.0001) //                bi = 000096, bj = 000001
(PID.TID 0000.0001) // Tile number: 000097 (process no. = 000001)
(PID.TID 0000.0001) //        WEST: Tile = 000096, Process = 000001, Comm = put
(PID.TID 0000.0001) //                bi = 000096, bj = 000001
(PID.TID 0000.0001) //        EAST: Tile = 000098, Process = 000001, Comm = put
(PID.TID 0000.0001) //                bi = 000098, bj = 000001
(PID.TID 0000.0001) //       SOUTH: Tile = 000097, Process = 000001, Comm = put
(PID.TID 0000.0001) //                bi = 000097, bj = 000001
(PID.TID 0000.0001) //       NORTH: Tile = 000097, Process = 000001, Comm = put
(PID.TID 0000.0001) //                bi = 000097, bj = 000001
(PID.TID 0000.0001) // Tile number: 000098 (process no. = 000001)
(PID.TID 0000.0001) //        WEST: Tile = 000097, Process = 000001, Comm = put
(PID.TID 0000.0001) //                bi = 000097, bj = 000001
(PID.TID 0000.0001) //        EAST: Tile = 000099, Process = 000001, Comm = put
(PID.TID 0000.0001) //                bi = 000099, bj = 000001
(PID.TID 0000.0001) //       SOUTH: Tile = 000098, Process = 000001, Comm = put
(PID.TID 0000.0001) //                bi = 000098, bj = 000001
(PID.TID 0000.0001) //       NORTH: Tile = 000098, Process = 000001, Comm = put
(PID.TID 0000.0001) //                bi = 000098, bj = 000001
(PID.TID 0000.0001) // Tile number: 000099 (process no. = 000001)
(PID.TID 0000.0001) //        WEST: Tile = 000098, Process = 000001, Comm = put
(PID.TID 0000.0001) //                bi = 000098, bj = 000001
(PID.TID 0000.0001) //        EAST: Tile = 000100, Process = 000001, Comm = put
(PID.TID 0000.0001) //                bi = 000100, bj = 000001
(PID.TID 0000.0001) //       SOUTH: Tile = 000099, Process = 000001, Comm = put
(PID.TID 0000.0001) //                bi = 000099, bj = 000001
(PID.TID 0000.0001) //       NORTH: Tile = 000099, Process = 000001, Comm = put
(PID.TID 0000.0001) //                bi = 000099, bj = 000001
(PID.TID 0000.0001) // Tile number: 000100 (process no. = 000001)
(PID.TID 0000.0001) //        WEST: Tile = 000099, Process = 000001, Comm = put
(PID.TID 0000.0001) //                bi = 000099, bj = 000001
(PID.TID 0000.0001) //        EAST: Tile = 000101, Process = 000001, Comm = put
(PID.TID 0000.0001) //                bi = 000101, bj = 000001
(PID.TID 0000.0001) //       SOUTH: Tile = 000100, Process = 000001, Comm = put
(PID.TID 0000.0001) //                bi = 000100, bj = 000001
(PID.TID 0000.0001) //       NORTH: Tile = 000100, Process = 000001, Comm = put
(PID.TID 0000.0001) //                bi = 000100, bj = 000001
(PID.TID 0000.0001) // Tile number: 000101 (process no. = 000001)
(PID.TID 0000.0001) //        WEST: Tile = 000100, Process = 000001, Comm = put
(PID.TID 0000.0001) //                bi = 000100, bj = 000001
(PID.TID 0000.0001) //        EAST: Tile = 000102, Process = 000001, Comm = put
(PID.TID 0000.0001) //                bi = 000102, bj = 000001
(PID.TID 0000.0001) //       SOUTH: Tile = 000101, Process = 000001, Comm = put
(PID.TID 0000.0001) //                bi = 000101, bj = 000001
(PID.TID 0000.0001) //       NORTH: Tile = 000101, Process = 000001, Comm = put
(PID.TID 0000.0001) //                bi = 000101, bj = 000001
(PID.TID 0000.0001) // Tile number: 000102 (process no. = 000001)
(PID.TID 0000.0001) //        WEST: Tile = 000101, Process = 000001, Comm = put
(PID.TID 0000.0001) //                bi = 000101, bj = 000001
(PID.TID 0000.0001) //        EAST: Tile = 000103, Process = 000001, Comm = put
(PID.TID 0000.0001) //                bi = 000103, bj = 000001
(PID.TID 0000.0001) //       SOUTH: Tile = 000102, Process = 000001, Comm = put
(PID.TID 0000.0001) //                bi = 000102, bj = 000001
(PID.TID 0000.0001) //       NORTH: Tile = 000102, Process = 000001, Comm = put
(PID.TID 0000.0001) //                bi = 000102, bj = 000001
(PID.TID 0000.0001) // Tile number: 000103 (process no. = 000001)
(PID.TID 0000.0001) //        WEST: Tile = 000102, Process = 000001, Comm = put
(PID.TID 0000.0001) //                bi = 000102, bj = 000001
(PID.TID 0000.0001) //        EAST: Tile = 000104, Process = 000001, Comm = put
(PID.TID 0000.0001) //                bi = 000104, bj = 000001
(PID.TID 0000.0001) //       SOUTH: Tile = 000103, Process = 000001, Comm = put
(PID.TID 0000.0001) //                bi = 000103, bj = 000001
(PID.TID 0000.0001) //       NORTH: Tile = 000103, Process = 000001, Comm = put
(PID.TID 0000.0001) //                bi = 000103, bj = 000001
(PID.TID 0000.0001) // Tile number: 000104 (process no. = 000001)
(PID.TID 0000.0001) //        WEST: Tile = 000103, Process = 000001, Comm = put
(PID.TID 0000.0001) //                bi = 000103, bj = 000001
(PID.TID 0000.0001) //        EAST: Tile = 000105, Process = 000001, Comm = put
(PID.TID 0000.0001) //                bi = 000105, bj = 000001
(PID.TID 0000.0001) //       SOUTH: Tile = 000104, Process = 000001, Comm = put
(PID.TID 0000.0001) //                bi = 000104, bj = 000001
(PID.TID 0000.0001) //       NORTH: Tile = 000104, Process = 000001, Comm = put
(PID.TID 0000.0001) //                bi = 000104, bj = 000001
(PID.TID 0000.0001) // Tile number: 000105 (process no. = 000001)
(PID.TID 0000.0001) //        WEST: Tile = 000104, Process = 000001, Comm = put
(PID.TID 0000.0001) //                bi = 000104, bj = 000001
(PID.TID 0000.0001) //        EAST: Tile = 000106, Process = 000001, Comm = put
(PID.TID 0000.0001) //                bi = 000106, bj = 000001
(PID.TID 0000.0001) //       SOUTH: Tile = 000105, Process = 000001, Comm = put
(PID.TID 0000.0001) //                bi = 000105, bj = 000001
(PID.TID 0000.0001) //       NORTH: Tile = 000105, Process = 000001, Comm = put
(PID.TID 0000.0001) //                bi = 000105, bj = 000001
(PID.TID 0000.0001) // Tile number: 000106 (process no. = 000001)
(PID.TID 0000.0001) //        WEST: Tile = 000105, Process = 000001, Comm = put
(PID.TID 0000.0001) //                bi = 000105, bj = 000001
(PID.TID 0000.0001) //        EAST: Tile = 000107, Process = 000001, Comm = put
(PID.TID 0000.0001) //                bi = 000107, bj = 000001
(PID.TID 0000.0001) //       SOUTH: Tile = 000106, Process = 000001, Comm = put
(PID.TID 0000.0001) //                bi = 000106, bj = 000001
(PID.TID 0000.0001) //       NORTH: Tile = 000106, Process = 000001, Comm = put
(PID.TID 0000.0001) //                bi = 000106, bj = 000001
(PID.TID 0000.0001) // Tile number: 000107 (process no. = 000001)
(PID.TID 0000.0001) //        WEST: Tile = 000106, Process = 000001, Comm = put
(PID.TID 0000.0001) //                bi = 000106, bj = 000001
(PID.TID 0000.0001) //        EAST: Tile = 000108, Process = 000001, Comm = put
(PID.TID 0000.0001) //                bi = 000108, bj = 000001
(PID.TID 0000.0001) //       SOUTH: Tile = 000107, Process = 000001, Comm = put
(PID.TID 0000.0001) //                bi = 000107, bj = 000001
(PID.TID 0000.0001) //       NORTH: Tile = 000107, Process = 000001, Comm = put
(PID.TID 0000.0001) //                bi = 000107, bj = 000001
(PID.TID 0000.0001) // Tile number: 000108 (process no. = 000001)
(PID.TID 0000.0001) //        WEST: Tile = 000107, Process = 000001, Comm = put
(PID.TID 0000.0001) //                bi = 000107, bj = 000001
(PID.TID 0000.0001) //        EAST: Tile = 000109, Process = 000001, Comm = put
(PID.TID 0000.0001) //                bi = 000109, bj = 000001
(PID.TID 0000.0001) //       SOUTH: Tile = 000108, Process = 000001, Comm = put
(PID.TID 0000.0001) //                bi = 000108, bj = 000001
(PID.TID 0000.0001) //       NORTH: Tile = 000108, Process = 000001, Comm = put
(PID.TID 0000.0001) //                bi = 000108, bj = 000001
(PID.TID 0000.0001) // Tile number: 000109 (process no. = 000001)
(PID.TID 0000.0001) //        WEST: Tile = 000108, Process = 000001, Comm = put
(PID.TID 0000.0001) //                bi = 000108, bj = 000001
(PID.TID 0000.0001) //        EAST: Tile = 000110, Process = 000001, Comm = put
(PID.TID 0000.0001) //                bi = 000110, bj = 000001
(PID.TID 0000.0001) //       SOUTH: Tile = 000109, Process = 000001, Comm = put
(PID.TID 0000.0001) //                bi = 000109, bj = 000001
(PID.TID 0000.0001) //       NORTH: Tile = 000109, Process = 000001, Comm = put
(PID.TID 0000.0001) //                bi = 000109, bj = 000001
(PID.TID 0000.0001) // Tile number: 000110 (process no. = 000001)
(PID.TID 0000.0001) //        WEST: Tile = 000109, Process = 000001, Comm = put
(PID.TID 0000.0001) //                bi = 000109, bj = 000001
(PID.TID 0000.0001) //        EAST: Tile = 000111, Process = 000001, Comm = put
(PID.TID 0000.0001) //                bi = 000111, bj = 000001
(PID.TID 0000.0001) //       SOUTH: Tile = 000110, Process = 000001, Comm = put
(PID.TID 0000.0001) //                bi = 000110, bj = 000001
(PID.TID 0000.0001) //       NORTH: Tile = 000110, Process = 000001, Comm = put
(PID.TID 0000.0001) //                bi = 000110, bj = 000001
(PID.TID 0000.0001) // Tile number: 000111 (process no. = 000001)
(PID.TID 0000.0001) //        WEST: Tile = 000110, Process = 000001, Comm = put
(PID.TID 0000.0001) //                bi = 000110, bj = 000001
(PID.TID 0000.0001) //        EAST: Tile = 000112, Process = 000001, Comm = put
(PID.TID 0000.0001) //                bi = 000112, bj = 000001
(PID.TID 0000.0001) //       SOUTH: Tile = 000111, Process = 000001, Comm = put
(PID.TID 0000.0001) //                bi = 000111, bj = 000001
(PID.TID 0000.0001) //       NORTH: Tile = 000111, Process = 000001, Comm = put
(PID.TID 0000.0001) //                bi = 000111, bj = 000001
(PID.TID 0000.0001) // Tile number: 000112 (process no. = 000001)
(PID.TID 0000.0001) //        WEST: Tile = 000111, Process = 000001, Comm = put
(PID.TID 0000.0001) //                bi = 000111, bj = 000001
(PID.TID 0000.0001) //        EAST: Tile = 000113, Process = 000001, Comm = put
(PID.TID 0000.0001) //                bi = 000113, bj = 000001
(PID.TID 0000.0001) //       SOUTH: Tile = 000112, Process = 000001, Comm = put
(PID.TID 0000.0001) //                bi = 000112, bj = 000001
(PID.TID 0000.0001) //       NORTH: Tile = 000112, Process = 000001, Comm = put
(PID.TID 0000.0001) //                bi = 000112, bj = 000001
(PID.TID 0000.0001) // Tile number: 000113 (process no. = 000001)
(PID.TID 0000.0001) //        WEST: Tile = 000112, Process = 000001, Comm = put
(PID.TID 0000.0001) //                bi = 000112, bj = 000001
(PID.TID 0000.0001) //        EAST: Tile = 000114, Process = 000001, Comm = put
(PID.TID 0000.0001) //                bi = 000114, bj = 000001
(PID.TID 0000.0001) //       SOUTH: Tile = 000113, Process = 000001, Comm = put
(PID.TID 0000.0001) //                bi = 000113, bj = 000001
(PID.TID 0000.0001) //       NORTH: Tile = 000113, Process = 000001, Comm = put
(PID.TID 0000.0001) //                bi = 000113, bj = 000001
(PID.TID 0000.0001) // Tile number: 000114 (process no. = 000001)
(PID.TID 0000.0001) //        WEST: Tile = 000113, Process = 000001, Comm = put
(PID.TID 0000.0001) //                bi = 000113, bj = 000001
(PID.TID 0000.0001) //        EAST: Tile = 000115, Process = 000001, Comm = put
(PID.TID 0000.0001) //                bi = 000115, bj = 000001
(PID.TID 0000.0001) //       SOUTH: Tile = 000114, Process = 000001, Comm = put
(PID.TID 0000.0001) //                bi = 000114, bj = 000001
(PID.TID 0000.0001) //       NORTH: Tile = 000114, Process = 000001, Comm = put
(PID.TID 0000.0001) //                bi = 000114, bj = 000001
(PID.TID 0000.0001) // Tile number: 000115 (process no. = 000001)
(PID.TID 0000.0001) //        WEST: Tile = 000114, Process = 000001, Comm = put
(PID.TID 0000.0001) //                bi = 000114, bj = 000001
(PID.TID 0000.0001) //        EAST: Tile = 000116, Process = 000001, Comm = put
(PID.TID 0000.0001) //                bi = 000116, bj = 000001
(PID.TID 0000.0001) //       SOUTH: Tile = 000115, Process = 000001, Comm = put
(PID.TID 0000.0001) //                bi = 000115, bj = 000001
(PID.TID 0000.0001) //       NORTH: Tile = 000115, Process = 000001, Comm = put
(PID.TID 0000.0001) //                bi = 000115, bj = 000001
(PID.TID 0000.0001) // Tile number: 000116 (process no. = 000001)
(PID.TID 0000.0001) //        WEST: Tile = 000115, Process = 000001, Comm = put
(PID.TID 0000.0001) //                bi = 000115, bj = 000001
(PID.TID 0000.0001) //        EAST: Tile = 000117, Process = 000001, Comm = put
(PID.TID 0000.0001) //                bi = 000117, bj = 000001
(PID.TID 0000.0001) //       SOUTH: Tile = 000116, Process = 000001, Comm = put
(PID.TID 0000.0001) //                bi = 000116, bj = 000001
(PID.TID 0000.0001) //       NORTH: Tile = 000116, Process = 000001, Comm = put
(PID.TID 0000.0001) //                bi = 000116, bj = 000001
(PID.TID 0000.0001) // Tile number: 000117 (process no. = 000001)
(PID.TID 0000.0001) //        WEST: Tile = 000116, Process = 000001, Comm = put
(PID.TID 0000.0001) //                bi = 000116, bj = 000001
(PID.TID 0000.0001) //        EAST: Tile = 000118, Process = 000001, Comm = put
(PID.TID 0000.0001) //                bi = 000118, bj = 000001
(PID.TID 0000.0001) //       SOUTH: Tile = 000117, Process = 000001, Comm = put
(PID.TID 0000.0001) //                bi = 000117, bj = 000001
(PID.TID 0000.0001) //       NORTH: Tile = 000117, Process = 000001, Comm = put
(PID.TID 0000.0001) //                bi = 000117, bj = 000001
(PID.TID 0000.0001) // Tile number: 000118 (process no. = 000001)
(PID.TID 0000.0001) //        WEST: Tile = 000117, Process = 000001, Comm = put
(PID.TID 0000.0001) //                bi = 000117, bj = 000001
(PID.TID 0000.0001) //        EAST: Tile = 000119, Process = 000001, Comm = put
(PID.TID 0000.0001) //                bi = 000119, bj = 000001
(PID.TID 0000.0001) //       SOUTH: Tile = 000118, Process = 000001, Comm = put
(PID.TID 0000.0001) //                bi = 000118, bj = 000001
(PID.TID 0000.0001) //       NORTH: Tile = 000118, Process = 000001, Comm = put
(PID.TID 0000.0001) //                bi = 000118, bj = 000001
(PID.TID 0000.0001) // Tile number: 000119 (process no. = 000001)
(PID.TID 0000.0001) //        WEST: Tile = 000118, Process = 000001, Comm = put
(PID.TID 0000.0001) //                bi = 000118, bj = 000001
(PID.TID 0000.0001) //        EAST: Tile = 000120, Process = 000001, Comm = put
(PID.TID 0000.0001) //                bi = 000120, bj = 000001
(PID.TID 0000.0001) //       SOUTH: Tile = 000119, Process = 000001, Comm = put
(PID.TID 0000.0001) //                bi = 000119, bj = 000001
(PID.TID 0000.0001) //       NORTH: Tile = 000119, Process = 000001, Comm = put
(PID.TID 0000.0001) //                bi = 000119, bj = 000001
(PID.TID 0000.0001) // Tile number: 000120 (process no. = 000001)
(PID.TID 0000.0001) //        WEST: Tile = 000119, Process = 000001, Comm = put
(PID.TID 0000.0001) //                bi = 000119, bj = 000001
(PID.TID 0000.0001) //        EAST: Tile = 000121, Process = 000001, Comm = put
(PID.TID 0000.0001) //                bi = 000121, bj = 000001
(PID.TID 0000.0001) //       SOUTH: Tile = 000120, Process = 000001, Comm = put
(PID.TID 0000.0001) //                bi = 000120, bj = 000001
(PID.TID 0000.0001) //       NORTH: Tile = 000120, Process = 000001, Comm = put
(PID.TID 0000.0001) //                bi = 000120, bj = 000001
(PID.TID 0000.0001) // Tile number: 000121 (process no. = 000001)
(PID.TID 0000.0001) //        WEST: Tile = 000120, Process = 000001, Comm = put
(PID.TID 0000.0001) //                bi = 000120, bj = 000001
(PID.TID 0000.0001) //        EAST: Tile = 000122, Process = 000001, Comm = put
(PID.TID 0000.0001) //                bi = 000122, bj = 000001
(PID.TID 0000.0001) //       SOUTH: Tile = 000121, Process = 000001, Comm = put
(PID.TID 0000.0001) //                bi = 000121, bj = 000001
(PID.TID 0000.0001) //       NORTH: Tile = 000121, Process = 000001, Comm = put
(PID.TID 0000.0001) //                bi = 000121, bj = 000001
(PID.TID 0000.0001) // Tile number: 000122 (process no. = 000001)
(PID.TID 0000.0001) //        WEST: Tile = 000121, Process = 000001, Comm = put
(PID.TID 0000.0001) //                bi = 000121, bj = 000001
(PID.TID 0000.0001) //        EAST: Tile = 000123, Process = 000001, Comm = put
(PID.TID 0000.0001) //                bi = 000123, bj = 000001
(PID.TID 0000.0001) //       SOUTH: Tile = 000122, Process = 000001, Comm = put
(PID.TID 0000.0001) //                bi = 000122, bj = 000001
(PID.TID 0000.0001) //       NORTH: Tile = 000122, Process = 000001, Comm = put
(PID.TID 0000.0001) //                bi = 000122, bj = 000001
(PID.TID 0000.0001) // Tile number: 000123 (process no. = 000001)
(PID.TID 0000.0001) //        WEST: Tile = 000122, Process = 000001, Comm = put
(PID.TID 0000.0001) //                bi = 000122, bj = 000001
(PID.TID 0000.0001) //        EAST: Tile = 000124, Process = 000001, Comm = put
(PID.TID 0000.0001) //                bi = 000124, bj = 000001
(PID.TID 0000.0001) //       SOUTH: Tile = 000123, Process = 000001, Comm = put
(PID.TID 0000.0001) //                bi = 000123, bj = 000001
(PID.TID 0000.0001) //       NORTH: Tile = 000123, Process = 000001, Comm = put
(PID.TID 0000.0001) //                bi = 000123, bj = 000001
(PID.TID 0000.0001) // Tile number: 000124 (process no. = 000001)
(PID.TID 0000.0001) //        WEST: Tile = 000123, Process = 000001, Comm = put
(PID.TID 0000.0001) //                bi = 000123, bj = 000001
(PID.TID 0000.0001) //        EAST: Tile = 000125, Process = 000001, Comm = put
(PID.TID 0000.0001) //                bi = 000125, bj = 000001
(PID.TID 0000.0001) //       SOUTH: Tile = 000124, Process = 000001, Comm = put
(PID.TID 0000.0001) //                bi = 000124, bj = 000001
(PID.TID 0000.0001) //       NORTH: Tile = 000124, Process = 000001, Comm = put
(PID.TID 0000.0001) //                bi = 000124, bj = 000001
(PID.TID 0000.0001) // Tile number: 000125 (process no. = 000001)
(PID.TID 0000.0001) //        WEST: Tile = 000124, Process = 000001, Comm = put
(PID.TID 0000.0001) //                bi = 000124, bj = 000001
(PID.TID 0000.0001) //        EAST: Tile = 000126, Process = 000001, Comm = put
(PID.TID 0000.0001) //                bi = 000126, bj = 000001
(PID.TID 0000.0001) //       SOUTH: Tile = 000125, Process = 000001, Comm = put
(PID.TID 0000.0001) //                bi = 000125, bj = 000001
(PID.TID 0000.0001) //       NORTH: Tile = 000125, Process = 000001, Comm = put
(PID.TID 0000.0001) //                bi = 000125, bj = 000001
(PID.TID 0000.0001) // Tile number: 000126 (process no. = 000001)
(PID.TID 0000.0001) //        WEST: Tile = 000125, Process = 000001, Comm = put
(PID.TID 0000.0001) //                bi = 000125, bj = 000001
(PID.TID 0000.0001) //        EAST: Tile = 000127, Process = 000001, Comm = put
(PID.TID 0000.0001) //                bi = 000127, bj = 000001
(PID.TID 0000.0001) //       SOUTH: Tile = 000126, Process = 000001, Comm = put
(PID.TID 0000.0001) //                bi = 000126, bj = 000001
(PID.TID 0000.0001) //       NORTH: Tile = 000126, Process = 000001, Comm = put
(PID.TID 0000.0001) //                bi = 000126, bj = 000001
(PID.TID 0000.0001) // Tile number: 000127 (process no. = 000001)
(PID.TID 0000.0001) //        WEST: Tile = 000126, Process = 000001, Comm = put
(PID.TID 0000.0001) //                bi = 000126, bj = 000001
(PID.TID 0000.0001) //        EAST: Tile = 000128, Process = 000001, Comm = put
(PID.TID 0000.0001) //                bi = 000128, bj = 000001
(PID.TID 0000.0001) //       SOUTH: Tile = 000127, Process = 000001, Comm = put
(PID.TID 0000.0001) //                bi = 000127, bj = 000001
(PID.TID 0000.0001) //       NORTH: Tile = 000127, Process = 000001, Comm = put
(PID.TID 0000.0001) //                bi = 000127, bj = 000001
(PID.TID 0000.0001) // Tile number: 000128 (process no. = 000001)
(PID.TID 0000.0001) //        WEST: Tile = 000127, Process = 000001, Comm = put
(PID.TID 0000.0001) //                bi = 000127, bj = 000001
(PID.TID 0000.0001) //        EAST: Tile = 000129, Process = 000001, Comm = put
(PID.TID 0000.0001) //                bi = 000129, bj = 000001
(PID.TID 0000.0001) //       SOUTH: Tile = 000128, Process = 000001, Comm = put
(PID.TID 0000.0001) //                bi = 000128, bj = 000001
(PID.TID 0000.0001) //       NORTH: Tile = 000128, Process = 000001, Comm = put
(PID.TID 0000.0001) //                bi = 000128, bj = 000001
(PID.TID 0000.0001) // Tile number: 000129 (process no. = 000001)
(PID.TID 0000.0001) //        WEST: Tile = 000128, Process = 000001, Comm = put
(PID.TID 0000.0001) //                bi = 000128, bj = 000001
(PID.TID 0000.0001) //        EAST: Tile = 000130, Process = 000001, Comm = put
(PID.TID 0000.0001) //                bi = 000130, bj = 000001
(PID.TID 0000.0001) //       SOUTH: Tile = 000129, Process = 000001, Comm = put
(PID.TID 0000.0001) //                bi = 000129, bj = 000001
(PID.TID 0000.0001) //       NORTH: Tile = 000129, Process = 000001, Comm = put
(PID.TID 0000.0001) //                bi = 000129, bj = 000001
(PID.TID 0000.0001) // Tile number: 000130 (process no. = 000001)
(PID.TID 0000.0001) //        WEST: Tile = 000129, Process = 000001, Comm = put
(PID.TID 0000.0001) //                bi = 000129, bj = 000001
(PID.TID 0000.0001) //        EAST: Tile = 000131, Process = 000001, Comm = put
(PID.TID 0000.0001) //                bi = 000131, bj = 000001
(PID.TID 0000.0001) //       SOUTH: Tile = 000130, Process = 000001, Comm = put
(PID.TID 0000.0001) //                bi = 000130, bj = 000001
(PID.TID 0000.0001) //       NORTH: Tile = 000130, Process = 000001, Comm = put
(PID.TID 0000.0001) //                bi = 000130, bj = 000001
(PID.TID 0000.0001) // Tile number: 000131 (process no. = 000001)
(PID.TID 0000.0001) //        WEST: Tile = 000130, Process = 000001, Comm = put
(PID.TID 0000.0001) //                bi = 000130, bj = 000001
(PID.TID 0000.0001) //        EAST: Tile = 000132, Process = 000001, Comm = put
(PID.TID 0000.0001) //                bi = 000132, bj = 000001
(PID.TID 0000.0001) //       SOUTH: Tile = 000131, Process = 000001, Comm = put
(PID.TID 0000.0001) //                bi = 000131, bj = 000001
(PID.TID 0000.0001) //       NORTH: Tile = 000131, Process = 000001, Comm = put
(PID.TID 0000.0001) //                bi = 000131, bj = 000001
(PID.TID 0000.0001) // Tile number: 000132 (process no. = 000001)
(PID.TID 0000.0001) //        WEST: Tile = 000131, Process = 000001, Comm = put
(PID.TID 0000.0001) //                bi = 000131, bj = 000001
(PID.TID 0000.0001) //        EAST: Tile = 000133, Process = 000001, Comm = put
(PID.TID 0000.0001) //                bi = 000133, bj = 000001
(PID.TID 0000.0001) //       SOUTH: Tile = 000132, Process = 000001, Comm = put
(PID.TID 0000.0001) //                bi = 000132, bj = 000001
(PID.TID 0000.0001) //       NORTH: Tile = 000132, Process = 000001, Comm = put
(PID.TID 0000.0001) //                bi = 000132, bj = 000001
(PID.TID 0000.0001) // Tile number: 000133 (process no. = 000001)
(PID.TID 0000.0001) //        WEST: Tile = 000132, Process = 000001, Comm = put
(PID.TID 0000.0001) //                bi = 000132, bj = 000001
(PID.TID 0000.0001) //        EAST: Tile = 000134, Process = 000001, Comm = put
(PID.TID 0000.0001) //                bi = 000134, bj = 000001
(PID.TID 0000.0001) //       SOUTH: Tile = 000133, Process = 000001, Comm = put
(PID.TID 0000.0001) //                bi = 000133, bj = 000001
(PID.TID 0000.0001) //       NORTH: Tile = 000133, Process = 000001, Comm = put
(PID.TID 0000.0001) //                bi = 000133, bj = 000001
(PID.TID 0000.0001) // Tile number: 000134 (process no. = 000001)
(PID.TID 0000.0001) //        WEST: Tile = 000133, Process = 000001, Comm = put
(PID.TID 0000.0001) //                bi = 000133, bj = 000001
(PID.TID 0000.0001) //        EAST: Tile = 000135, Process = 000001, Comm = put
(PID.TID 0000.0001) //                bi = 000135, bj = 000001
(PID.TID 0000.0001) //       SOUTH: Tile = 000134, Process = 000001, Comm = put
(PID.TID 0000.0001) //                bi = 000134, bj = 000001
(PID.TID 0000.0001) //       NORTH: Tile = 000134, Process = 000001, Comm = put
(PID.TID 0000.0001) //                bi = 000134, bj = 000001
(PID.TID 0000.0001) // Tile number: 000135 (process no. = 000001)
(PID.TID 0000.0001) //        WEST: Tile = 000134, Process = 000001, Comm = put
(PID.TID 0000.0001) //                bi = 000134, bj = 000001
(PID.TID 0000.0001) //        EAST: Tile = 000136, Process = 000001, Comm = put
(PID.TID 0000.0001) //                bi = 000136, bj = 000001
(PID.TID 0000.0001) //       SOUTH: Tile = 000135, Process = 000001, Comm = put
(PID.TID 0000.0001) //                bi = 000135, bj = 000001
(PID.TID 0000.0001) //       NORTH: Tile = 000135, Process = 000001, Comm = put
(PID.TID 0000.0001) //                bi = 000135, bj = 000001
(PID.TID 0000.0001) // Tile number: 000136 (process no. = 000001)
(PID.TID 0000.0001) //        WEST: Tile = 000135, Process = 000001, Comm = put
(PID.TID 0000.0001) //                bi = 000135, bj = 000001
(PID.TID 0000.0001) //        EAST: Tile = 000137, Process = 000001, Comm = put
(PID.TID 0000.0001) //                bi = 000137, bj = 000001
(PID.TID 0000.0001) //       SOUTH: Tile = 000136, Process = 000001, Comm = put
(PID.TID 0000.0001) //                bi = 000136, bj = 000001
(PID.TID 0000.0001) //       NORTH: Tile = 000136, Process = 000001, Comm = put
(PID.TID 0000.0001) //                bi = 000136, bj = 000001
(PID.TID 0000.0001) // Tile number: 000137 (process no. = 000001)
(PID.TID 0000.0001) //        WEST: Tile = 000136, Process = 000001, Comm = put
(PID.TID 0000.0001) //                bi = 000136, bj = 000001
(PID.TID 0000.0001) //        EAST: Tile = 000138, Process = 000001, Comm = put
(PID.TID 0000.0001) //                bi = 000138, bj = 000001
(PID.TID 0000.0001) //       SOUTH: Tile = 000137, Process = 000001, Comm = put
(PID.TID 0000.0001) //                bi = 000137, bj = 000001
(PID.TID 0000.0001) //       NORTH: Tile = 000137, Process = 000001, Comm = put
(PID.TID 0000.0001) //                bi = 000137, bj = 000001
(PID.TID 0000.0001) // Tile number: 000138 (process no. = 000001)
(PID.TID 0000.0001) //        WEST: Tile = 000137, Process = 000001, Comm = put
(PID.TID 0000.0001) //                bi = 000137, bj = 000001
(PID.TID 0000.0001) //        EAST: Tile = 000139, Process = 000001, Comm = put
(PID.TID 0000.0001) //                bi = 000139, bj = 000001
(PID.TID 0000.0001) //       SOUTH: Tile = 000138, Process = 000001, Comm = put
(PID.TID 0000.0001) //                bi = 000138, bj = 000001
(PID.TID 0000.0001) //       NORTH: Tile = 000138, Process = 000001, Comm = put
(PID.TID 0000.0001) //                bi = 000138, bj = 000001
(PID.TID 0000.0001) // Tile number: 000139 (process no. = 000001)
(PID.TID 0000.0001) //        WEST: Tile = 000138, Process = 000001, Comm = put
(PID.TID 0000.0001) //                bi = 000138, bj = 000001
(PID.TID 0000.0001) //        EAST: Tile = 000140, Process = 000001, Comm = put
(PID.TID 0000.0001) //                bi = 000140, bj = 000001
(PID.TID 0000.0001) //       SOUTH: Tile = 000139, Process = 000001, Comm = put
(PID.TID 0000.0001) //                bi = 000139, bj = 000001
(PID.TID 0000.0001) //       NORTH: Tile = 000139, Process = 000001, Comm = put
(PID.TID 0000.0001) //                bi = 000139, bj = 000001
(PID.TID 0000.0001) // Tile number: 000140 (process no. = 000001)
(PID.TID 0000.0001) //        WEST: Tile = 000139, Process = 000001, Comm = put
(PID.TID 0000.0001) //                bi = 000139, bj = 000001
(PID.TID 0000.0001) //        EAST: Tile = 000141, Process = 000001, Comm = put
(PID.TID 0000.0001) //                bi = 000141, bj = 000001
(PID.TID 0000.0001) //       SOUTH: Tile = 000140, Process = 000001, Comm = put
(PID.TID 0000.0001) //                bi = 000140, bj = 000001
(PID.TID 0000.0001) //       NORTH: Tile = 000140, Process = 000001, Comm = put
(PID.TID 0000.0001) //                bi = 000140, bj = 000001
(PID.TID 0000.0001) // Tile number: 000141 (process no. = 000001)
(PID.TID 0000.0001) //        WEST: Tile = 000140, Process = 000001, Comm = put
(PID.TID 0000.0001) //                bi = 000140, bj = 000001
(PID.TID 0000.0001) //        EAST: Tile = 000142, Process = 000001, Comm = put
(PID.TID 0000.0001) //                bi = 000142, bj = 000001
(PID.TID 0000.0001) //       SOUTH: Tile = 000141, Process = 000001, Comm = put
(PID.TID 0000.0001) //                bi = 000141, bj = 000001
(PID.TID 0000.0001) //       NORTH: Tile = 000141, Process = 000001, Comm = put
(PID.TID 0000.0001) //                bi = 000141, bj = 000001
(PID.TID 0000.0001) // Tile number: 000142 (process no. = 000001)
(PID.TID 0000.0001) //        WEST: Tile = 000141, Process = 000001, Comm = put
(PID.TID 0000.0001) //                bi = 000141, bj = 000001
(PID.TID 0000.0001) //        EAST: Tile = 000143, Process = 000001, Comm = put
(PID.TID 0000.0001) //                bi = 000143, bj = 000001
(PID.TID 0000.0001) //       SOUTH: Tile = 000142, Process = 000001, Comm = put
(PID.TID 0000.0001) //                bi = 000142, bj = 000001
(PID.TID 0000.0001) //       NORTH: Tile = 000142, Process = 000001, Comm = put
(PID.TID 0000.0001) //                bi = 000142, bj = 000001
(PID.TID 0000.0001) // Tile number: 000143 (process no. = 000001)
(PID.TID 0000.0001) //        WEST: Tile = 000142, Process = 000001, Comm = put
(PID.TID 0000.0001) //                bi = 000142, bj = 000001
(PID.TID 0000.0001) //        EAST: Tile = 000144, Process = 000001, Comm = put
(PID.TID 0000.0001) //                bi = 000144, bj = 000001
(PID.TID 0000.0001) //       SOUTH: Tile = 000143, Process = 000001, Comm = put
(PID.TID 0000.0001) //                bi = 000143, bj = 000001
(PID.TID 0000.0001) //       NORTH: Tile = 000143, Process = 000001, Comm = put
(PID.TID 0000.0001) //                bi = 000143, bj = 000001
(PID.TID 0000.0001) // Tile number: 000144 (process no. = 000001)
(PID.TID 0000.0001) //        WEST: Tile = 000143, Process = 000001, Comm = put
(PID.TID 0000.0001) //                bi = 000143, bj = 000001
(PID.TID 0000.0001) //        EAST: Tile = 000145, Process = 000001, Comm = put
(PID.TID 0000.0001) //                bi = 000145, bj = 000001
(PID.TID 0000.0001) //       SOUTH: Tile = 000144, Process = 000001, Comm = put
(PID.TID 0000.0001) //                bi = 000144, bj = 000001
(PID.TID 0000.0001) //       NORTH: Tile = 000144, Process = 000001, Comm = put
(PID.TID 0000.0001) //                bi = 000144, bj = 000001
(PID.TID 0000.0001) // Tile number: 000145 (process no. = 000001)
(PID.TID 0000.0001) //        WEST: Tile = 000144, Process = 000001, Comm = put
(PID.TID 0000.0001) //                bi = 000144, bj = 000001
(PID.TID 0000.0001) //        EAST: Tile = 000146, Process = 000001, Comm = put
(PID.TID 0000.0001) //                bi = 000146, bj = 000001
(PID.TID 0000.0001) //       SOUTH: Tile = 000145, Process = 000001, Comm = put
(PID.TID 0000.0001) //                bi = 000145, bj = 000001
(PID.TID 0000.0001) //       NORTH: Tile = 000145, Process = 000001, Comm = put
(PID.TID 0000.0001) //                bi = 000145, bj = 000001
(PID.TID 0000.0001) // Tile number: 000146 (process no. = 000001)
(PID.TID 0000.0001) //        WEST: Tile = 000145, Process = 000001, Comm = put
(PID.TID 0000.0001) //                bi = 000145, bj = 000001
(PID.TID 0000.0001) //        EAST: Tile = 000147, Process = 000001, Comm = put
(PID.TID 0000.0001) //                bi = 000147, bj = 000001
(PID.TID 0000.0001) //       SOUTH: Tile = 000146, Process = 000001, Comm = put
(PID.TID 0000.0001) //                bi = 000146, bj = 000001
(PID.TID 0000.0001) //       NORTH: Tile = 000146, Process = 000001, Comm = put
(PID.TID 0000.0001) //                bi = 000146, bj = 000001
(PID.TID 0000.0001) // Tile number: 000147 (process no. = 000001)
(PID.TID 0000.0001) //        WEST: Tile = 000146, Process = 000001, Comm = put
(PID.TID 0000.0001) //                bi = 000146, bj = 000001
(PID.TID 0000.0001) //        EAST: Tile = 000148, Process = 000001, Comm = put
(PID.TID 0000.0001) //                bi = 000148, bj = 000001
(PID.TID 0000.0001) //       SOUTH: Tile = 000147, Process = 000001, Comm = put
(PID.TID 0000.0001) //                bi = 000147, bj = 000001
(PID.TID 0000.0001) //       NORTH: Tile = 000147, Process = 000001, Comm = put
(PID.TID 0000.0001) //                bi = 000147, bj = 000001
(PID.TID 0000.0001) // Tile number: 000148 (process no. = 000001)
(PID.TID 0000.0001) //        WEST: Tile = 000147, Process = 000001, Comm = put
(PID.TID 0000.0001) //                bi = 000147, bj = 000001
(PID.TID 0000.0001) //        EAST: Tile = 000149, Process = 000001, Comm = put
(PID.TID 0000.0001) //                bi = 000149, bj = 000001
(PID.TID 0000.0001) //       SOUTH: Tile = 000148, Process = 000001, Comm = put
(PID.TID 0000.0001) //                bi = 000148, bj = 000001
(PID.TID 0000.0001) //       NORTH: Tile = 000148, Process = 000001, Comm = put
(PID.TID 0000.0001) //                bi = 000148, bj = 000001
(PID.TID 0000.0001) // Tile number: 000149 (process no. = 000001)
(PID.TID 0000.0001) //        WEST: Tile = 000148, Process = 000001, Comm = put
(PID.TID 0000.0001) //                bi = 000148, bj = 000001
(PID.TID 0000.0001) //        EAST: Tile = 000150, Process = 000001, Comm = put
(PID.TID 0000.0001) //                bi = 000150, bj = 000001
(PID.TID 0000.0001) //       SOUTH: Tile = 000149, Process = 000001, Comm = put
(PID.TID 0000.0001) //                bi = 000149, bj = 000001
(PID.TID 0000.0001) //       NORTH: Tile = 000149, Process = 000001, Comm = put
(PID.TID 0000.0001) //                bi = 000149, bj = 000001
(PID.TID 0000.0001) // Tile number: 000150 (process no. = 000001)
(PID.TID 0000.0001) //        WEST: Tile = 000149, Process = 000001, Comm = put
(PID.TID 0000.0001) //                bi = 000149, bj = 000001
(PID.TID 0000.0001) //        EAST: Tile = 000151, Process = 000001, Comm = put
(PID.TID 0000.0001) //                bi = 000151, bj = 000001
(PID.TID 0000.0001) //       SOUTH: Tile = 000150, Process = 000001, Comm = put
(PID.TID 0000.0001) //                bi = 000150, bj = 000001
(PID.TID 0000.0001) //       NORTH: Tile = 000150, Process = 000001, Comm = put
(PID.TID 0000.0001) //                bi = 000150, bj = 000001
(PID.TID 0000.0001) // Tile number: 000151 (process no. = 000001)
(PID.TID 0000.0001) //        WEST: Tile = 000150, Process = 000001, Comm = put
(PID.TID 0000.0001) //                bi = 000150, bj = 000001
(PID.TID 0000.0001) //        EAST: Tile = 000152, Process = 000001, Comm = put
(PID.TID 0000.0001) //                bi = 000152, bj = 000001
(PID.TID 0000.0001) //       SOUTH: Tile = 000151, Process = 000001, Comm = put
(PID.TID 0000.0001) //                bi = 000151, bj = 000001
(PID.TID 0000.0001) //       NORTH: Tile = 000151, Process = 000001, Comm = put
(PID.TID 0000.0001) //                bi = 000151, bj = 000001
(PID.TID 0000.0001) // Tile number: 000152 (process no. = 000001)
(PID.TID 0000.0001) //        WEST: Tile = 000151, Process = 000001, Comm = put
(PID.TID 0000.0001) //                bi = 000151, bj = 000001
(PID.TID 0000.0001) //        EAST: Tile = 000153, Process = 000001, Comm = put
(PID.TID 0000.0001) //                bi = 000153, bj = 000001
(PID.TID 0000.0001) //       SOUTH: Tile = 000152, Process = 000001, Comm = put
(PID.TID 0000.0001) //                bi = 000152, bj = 000001
(PID.TID 0000.0001) //       NORTH: Tile = 000152, Process = 000001, Comm = put
(PID.TID 0000.0001) //                bi = 000152, bj = 000001
(PID.TID 0000.0001) // Tile number: 000153 (process no. = 000001)
(PID.TID 0000.0001) //        WEST: Tile = 000152, Process = 000001, Comm = put
(PID.TID 0000.0001) //                bi = 000152, bj = 000001
(PID.TID 0000.0001) //        EAST: Tile = 000154, Process = 000001, Comm = put
(PID.TID 0000.0001) //                bi = 000154, bj = 000001
(PID.TID 0000.0001) //       SOUTH: Tile = 000153, Process = 000001, Comm = put
(PID.TID 0000.0001) //                bi = 000153, bj = 000001
(PID.TID 0000.0001) //       NORTH: Tile = 000153, Process = 000001, Comm = put
(PID.TID 0000.0001) //                bi = 000153, bj = 000001
(PID.TID 0000.0001) // Tile number: 000154 (process no. = 000001)
(PID.TID 0000.0001) //        WEST: Tile = 000153, Process = 000001, Comm = put
(PID.TID 0000.0001) //                bi = 000153, bj = 000001
(PID.TID 0000.0001) //        EAST: Tile = 000155, Process = 000001, Comm = put
(PID.TID 0000.0001) //                bi = 000155, bj = 000001
(PID.TID 0000.0001) //       SOUTH: Tile = 000154, Process = 000001, Comm = put
(PID.TID 0000.0001) //                bi = 000154, bj = 000001
(PID.TID 0000.0001) //       NORTH: Tile = 000154, Process = 000001, Comm = put
(PID.TID 0000.0001) //                bi = 000154, bj = 000001
(PID.TID 0000.0001) // Tile number: 000155 (process no. = 000001)
(PID.TID 0000.0001) //        WEST: Tile = 000154, Process = 000001, Comm = put
(PID.TID 0000.0001) //                bi = 000154, bj = 000001
(PID.TID 0000.0001) //        EAST: Tile = 000156, Process = 000001, Comm = put
(PID.TID 0000.0001) //                bi = 000156, bj = 000001
(PID.TID 0000.0001) //       SOUTH: Tile = 000155, Process = 000001, Comm = put
(PID.TID 0000.0001) //                bi = 000155, bj = 000001
(PID.TID 0000.0001) //       NORTH: Tile = 000155, Process = 000001, Comm = put
(PID.TID 0000.0001) //                bi = 000155, bj = 000001
(PID.TID 0000.0001) // Tile number: 000156 (process no. = 000001)
(PID.TID 0000.0001) //        WEST: Tile = 000155, Process = 000001, Comm = put
(PID.TID 0000.0001) //                bi = 000155, bj = 000001
(PID.TID 0000.0001) //        EAST: Tile = 000157, Process = 000001, Comm = put
(PID.TID 0000.0001) //                bi = 000157, bj = 000001
(PID.TID 0000.0001) //       SOUTH: Tile = 000156, Process = 000001, Comm = put
(PID.TID 0000.0001) //                bi = 000156, bj = 000001
(PID.TID 0000.0001) //       NORTH: Tile = 000156, Process = 000001, Comm = put
(PID.TID 0000.0001) //                bi = 000156, bj = 000001
(PID.TID 0000.0001) // Tile number: 000157 (process no. = 000001)
(PID.TID 0000.0001) //        WEST: Tile = 000156, Process = 000001, Comm = put
(PID.TID 0000.0001) //                bi = 000156, bj = 000001
(PID.TID 0000.0001) //        EAST: Tile = 000158, Process = 000001, Comm = put
(PID.TID 0000.0001) //                bi = 000158, bj = 000001
(PID.TID 0000.0001) //       SOUTH: Tile = 000157, Process = 000001, Comm = put
(PID.TID 0000.0001) //                bi = 000157, bj = 000001
(PID.TID 0000.0001) //       NORTH: Tile = 000157, Process = 000001, Comm = put
(PID.TID 0000.0001) //                bi = 000157, bj = 000001
(PID.TID 0000.0001) // Tile number: 000158 (process no. = 000001)
(PID.TID 0000.0001) //        WEST: Tile = 000157, Process = 000001, Comm = put
(PID.TID 0000.0001) //                bi = 000157, bj = 000001
(PID.TID 0000.0001) //        EAST: Tile = 000159, Process = 000001, Comm = put
(PID.TID 0000.0001) //                bi = 000159, bj = 000001
(PID.TID 0000.0001) //       SOUTH: Tile = 000158, Process = 000001, Comm = put
(PID.TID 0000.0001) //                bi = 000158, bj = 000001
(PID.TID 0000.0001) //       NORTH: Tile = 000158, Process = 000001, Comm = put
(PID.TID 0000.0001) //                bi = 000158, bj = 000001
(PID.TID 0000.0001) // Tile number: 000159 (process no. = 000001)
(PID.TID 0000.0001) //        WEST: Tile = 000158, Process = 000001, Comm = put
(PID.TID 0000.0001) //                bi = 000158, bj = 000001
(PID.TID 0000.0001) //        EAST: Tile = 000160, Process = 000001, Comm = put
(PID.TID 0000.0001) //                bi = 000160, bj = 000001
(PID.TID 0000.0001) //       SOUTH: Tile = 000159, Process = 000001, Comm = put
(PID.TID 0000.0001) //                bi = 000159, bj = 000001
(PID.TID 0000.0001) //       NORTH: Tile = 000159, Process = 000001, Comm = put
(PID.TID 0000.0001) //                bi = 000159, bj = 000001
(PID.TID 0000.0001) // Tile number: 000160 (process no. = 000001)
(PID.TID 0000.0001) //        WEST: Tile = 000159, Process = 000001, Comm = put
(PID.TID 0000.0001) //                bi = 000159, bj = 000001
(PID.TID 0000.0001) //        EAST: Tile = 000161, Process = 000001, Comm = put
(PID.TID 0000.0001) //                bi = 000161, bj = 000001
(PID.TID 0000.0001) //       SOUTH: Tile = 000160, Process = 000001, Comm = put
(PID.TID 0000.0001) //                bi = 000160, bj = 000001
(PID.TID 0000.0001) //       NORTH: Tile = 000160, Process = 000001, Comm = put
(PID.TID 0000.0001) //                bi = 000160, bj = 000001
(PID.TID 0000.0001) // Tile number: 000161 (process no. = 000001)
(PID.TID 0000.0001) //        WEST: Tile = 000160, Process = 000001, Comm = put
(PID.TID 0000.0001) //                bi = 000160, bj = 000001
(PID.TID 0000.0001) //        EAST: Tile = 000162, Process = 000001, Comm = put
(PID.TID 0000.0001) //                bi = 000162, bj = 000001
(PID.TID 0000.0001) //       SOUTH: Tile = 000161, Process = 000001, Comm = put
(PID.TID 0000.0001) //                bi = 000161, bj = 000001
(PID.TID 0000.0001) //       NORTH: Tile = 000161, Process = 000001, Comm = put
(PID.TID 0000.0001) //                bi = 000161, bj = 000001
(PID.TID 0000.0001) // Tile number: 000162 (process no. = 000001)
(PID.TID 0000.0001) //        WEST: Tile = 000161, Process = 000001, Comm = put
(PID.TID 0000.0001) //                bi = 000161, bj = 000001
(PID.TID 0000.0001) //        EAST: Tile = 000163, Process = 000001, Comm = put
(PID.TID 0000.0001) //                bi = 000163, bj = 000001
(PID.TID 0000.0001) //       SOUTH: Tile = 000162, Process = 000001, Comm = put
(PID.TID 0000.0001) //                bi = 000162, bj = 000001
(PID.TID 0000.0001) //       NORTH: Tile = 000162, Process = 000001, Comm = put
(PID.TID 0000.0001) //                bi = 000162, bj = 000001
(PID.TID 0000.0001) // Tile number: 000163 (process no. = 000001)
(PID.TID 0000.0001) //        WEST: Tile = 000162, Process = 000001, Comm = put
(PID.TID 0000.0001) //                bi = 000162, bj = 000001
(PID.TID 0000.0001) //        EAST: Tile = 000164, Process = 000001, Comm = put
(PID.TID 0000.0001) //                bi = 000164, bj = 000001
(PID.TID 0000.0001) //       SOUTH: Tile = 000163, Process = 000001, Comm = put
(PID.TID 0000.0001) //                bi = 000163, bj = 000001
(PID.TID 0000.0001) //       NORTH: Tile = 000163, Process = 000001, Comm = put
(PID.TID 0000.0001) //                bi = 000163, bj = 000001
(PID.TID 0000.0001) // Tile number: 000164 (process no. = 000001)
(PID.TID 0000.0001) //        WEST: Tile = 000163, Process = 000001, Comm = put
(PID.TID 0000.0001) //                bi = 000163, bj = 000001
(PID.TID 0000.0001) //        EAST: Tile = 000165, Process = 000001, Comm = put
(PID.TID 0000.0001) //                bi = 000165, bj = 000001
(PID.TID 0000.0001) //       SOUTH: Tile = 000164, Process = 000001, Comm = put
(PID.TID 0000.0001) //                bi = 000164, bj = 000001
(PID.TID 0000.0001) //       NORTH: Tile = 000164, Process = 000001, Comm = put
(PID.TID 0000.0001) //                bi = 000164, bj = 000001
(PID.TID 0000.0001) // Tile number: 000165 (process no. = 000001)
(PID.TID 0000.0001) //        WEST: Tile = 000164, Process = 000001, Comm = put
(PID.TID 0000.0001) //                bi = 000164, bj = 000001
(PID.TID 0000.0001) //        EAST: Tile = 000166, Process = 000001, Comm = put
(PID.TID 0000.0001) //                bi = 000166, bj = 000001
(PID.TID 0000.0001) //       SOUTH: Tile = 000165, Process = 000001, Comm = put
(PID.TID 0000.0001) //                bi = 000165, bj = 000001
(PID.TID 0000.0001) //       NORTH: Tile = 000165, Process = 000001, Comm = put
(PID.TID 0000.0001) //                bi = 000165, bj = 000001
(PID.TID 0000.0001) // Tile number: 000166 (process no. = 000001)
(PID.TID 0000.0001) //        WEST: Tile = 000165, Process = 000001, Comm = put
(PID.TID 0000.0001) //                bi = 000165, bj = 000001
(PID.TID 0000.0001) //        EAST: Tile = 000167, Process = 000001, Comm = put
(PID.TID 0000.0001) //                bi = 000167, bj = 000001
(PID.TID 0000.0001) //       SOUTH: Tile = 000166, Process = 000001, Comm = put
(PID.TID 0000.0001) //                bi = 000166, bj = 000001
(PID.TID 0000.0001) //       NORTH: Tile = 000166, Process = 000001, Comm = put
(PID.TID 0000.0001) //                bi = 000166, bj = 000001
(PID.TID 0000.0001) // Tile number: 000167 (process no. = 000001)
(PID.TID 0000.0001) //        WEST: Tile = 000166, Process = 000001, Comm = put
(PID.TID 0000.0001) //                bi = 000166, bj = 000001
(PID.TID 0000.0001) //        EAST: Tile = 000168, Process = 000001, Comm = put
(PID.TID 0000.0001) //                bi = 000168, bj = 000001
(PID.TID 0000.0001) //       SOUTH: Tile = 000167, Process = 000001, Comm = put
(PID.TID 0000.0001) //                bi = 000167, bj = 000001
(PID.TID 0000.0001) //       NORTH: Tile = 000167, Process = 000001, Comm = put
(PID.TID 0000.0001) //                bi = 000167, bj = 000001
(PID.TID 0000.0001) // Tile number: 000168 (process no. = 000001)
(PID.TID 0000.0001) //        WEST: Tile = 000167, Process = 000001, Comm = put
(PID.TID 0000.0001) //                bi = 000167, bj = 000001
(PID.TID 0000.0001) //        EAST: Tile = 000169, Process = 000001, Comm = put
(PID.TID 0000.0001) //                bi = 000169, bj = 000001
(PID.TID 0000.0001) //       SOUTH: Tile = 000168, Process = 000001, Comm = put
(PID.TID 0000.0001) //                bi = 000168, bj = 000001
(PID.TID 0000.0001) //       NORTH: Tile = 000168, Process = 000001, Comm = put
(PID.TID 0000.0001) //                bi = 000168, bj = 000001
(PID.TID 0000.0001) // Tile number: 000169 (process no. = 000001)
(PID.TID 0000.0001) //        WEST: Tile = 000168, Process = 000001, Comm = put
(PID.TID 0000.0001) //                bi = 000168, bj = 000001
(PID.TID 0000.0001) //        EAST: Tile = 000170, Process = 000001, Comm = put
(PID.TID 0000.0001) //                bi = 000170, bj = 000001
(PID.TID 0000.0001) //       SOUTH: Tile = 000169, Process = 000001, Comm = put
(PID.TID 0000.0001) //                bi = 000169, bj = 000001
(PID.TID 0000.0001) //       NORTH: Tile = 000169, Process = 000001, Comm = put
(PID.TID 0000.0001) //                bi = 000169, bj = 000001
(PID.TID 0000.0001) // Tile number: 000170 (process no. = 000001)
(PID.TID 0000.0001) //        WEST: Tile = 000169, Process = 000001, Comm = put
(PID.TID 0000.0001) //                bi = 000169, bj = 000001
(PID.TID 0000.0001) //        EAST: Tile = 000171, Process = 000001, Comm = put
(PID.TID 0000.0001) //                bi = 000171, bj = 000001
(PID.TID 0000.0001) //       SOUTH: Tile = 000170, Process = 000001, Comm = put
(PID.TID 0000.0001) //                bi = 000170, bj = 000001
(PID.TID 0000.0001) //       NORTH: Tile = 000170, Process = 000001, Comm = put
(PID.TID 0000.0001) //                bi = 000170, bj = 000001
(PID.TID 0000.0001) // Tile number: 000171 (process no. = 000001)
(PID.TID 0000.0001) //        WEST: Tile = 000170, Process = 000001, Comm = put
(PID.TID 0000.0001) //                bi = 000170, bj = 000001
(PID.TID 0000.0001) //        EAST: Tile = 000172, Process = 000001, Comm = put
(PID.TID 0000.0001) //                bi = 000172, bj = 000001
(PID.TID 0000.0001) //       SOUTH: Tile = 000171, Process = 000001, Comm = put
(PID.TID 0000.0001) //                bi = 000171, bj = 000001
(PID.TID 0000.0001) //       NORTH: Tile = 000171, Process = 000001, Comm = put
(PID.TID 0000.0001) //                bi = 000171, bj = 000001
(PID.TID 0000.0001) // Tile number: 000172 (process no. = 000001)
(PID.TID 0000.0001) //        WEST: Tile = 000171, Process = 000001, Comm = put
(PID.TID 0000.0001) //                bi = 000171, bj = 000001
(PID.TID 0000.0001) //        EAST: Tile = 000173, Process = 000001, Comm = put
(PID.TID 0000.0001) //                bi = 000173, bj = 000001
(PID.TID 0000.0001) //       SOUTH: Tile = 000172, Process = 000001, Comm = put
(PID.TID 0000.0001) //                bi = 000172, bj = 000001
(PID.TID 0000.0001) //       NORTH: Tile = 000172, Process = 000001, Comm = put
(PID.TID 0000.0001) //                bi = 000172, bj = 000001
(PID.TID 0000.0001) // Tile number: 000173 (process no. = 000001)
(PID.TID 0000.0001) //        WEST: Tile = 000172, Process = 000001, Comm = put
(PID.TID 0000.0001) //                bi = 000172, bj = 000001
(PID.TID 0000.0001) //        EAST: Tile = 000174, Process = 000001, Comm = put
(PID.TID 0000.0001) //                bi = 000174, bj = 000001
(PID.TID 0000.0001) //       SOUTH: Tile = 000173, Process = 000001, Comm = put
(PID.TID 0000.0001) //                bi = 000173, bj = 000001
(PID.TID 0000.0001) //       NORTH: Tile = 000173, Process = 000001, Comm = put
(PID.TID 0000.0001) //                bi = 000173, bj = 000001
(PID.TID 0000.0001) // Tile number: 000174 (process no. = 000001)
(PID.TID 0000.0001) //        WEST: Tile = 000173, Process = 000001, Comm = put
(PID.TID 0000.0001) //                bi = 000173, bj = 000001
(PID.TID 0000.0001) //        EAST: Tile = 000175, Process = 000001, Comm = put
(PID.TID 0000.0001) //                bi = 000175, bj = 000001
(PID.TID 0000.0001) //       SOUTH: Tile = 000174, Process = 000001, Comm = put
(PID.TID 0000.0001) //                bi = 000174, bj = 000001
(PID.TID 0000.0001) //       NORTH: Tile = 000174, Process = 000001, Comm = put
(PID.TID 0000.0001) //                bi = 000174, bj = 000001
(PID.TID 0000.0001) // Tile number: 000175 (process no. = 000001)
(PID.TID 0000.0001) //        WEST: Tile = 000174, Process = 000001, Comm = put
(PID.TID 0000.0001) //                bi = 000174, bj = 000001
(PID.TID 0000.0001) //        EAST: Tile = 000176, Process = 000001, Comm = put
(PID.TID 0000.0001) //                bi = 000176, bj = 000001
(PID.TID 0000.0001) //       SOUTH: Tile = 000175, Process = 000001, Comm = put
(PID.TID 0000.0001) //                bi = 000175, bj = 000001
(PID.TID 0000.0001) //       NORTH: Tile = 000175, Process = 000001, Comm = put
(PID.TID 0000.0001) //                bi = 000175, bj = 000001
(PID.TID 0000.0001) // Tile number: 000176 (process no. = 000001)
(PID.TID 0000.0001) //        WEST: Tile = 000175, Process = 000001, Comm = put
(PID.TID 0000.0001) //                bi = 000175, bj = 000001
(PID.TID 0000.0001) //        EAST: Tile = 000177, Process = 000001, Comm = put
(PID.TID 0000.0001) //                bi = 000177, bj = 000001
(PID.TID 0000.0001) //       SOUTH: Tile = 000176, Process = 000001, Comm = put
(PID.TID 0000.0001) //                bi = 000176, bj = 000001
(PID.TID 0000.0001) //       NORTH: Tile = 000176, Process = 000001, Comm = put
(PID.TID 0000.0001) //                bi = 000176, bj = 000001
(PID.TID 0000.0001) // Tile number: 000177 (process no. = 000001)
(PID.TID 0000.0001) //        WEST: Tile = 000176, Process = 000001, Comm = put
(PID.TID 0000.0001) //                bi = 000176, bj = 000001
(PID.TID 0000.0001) //        EAST: Tile = 000178, Process = 000001, Comm = put
(PID.TID 0000.0001) //                bi = 000178, bj = 000001
(PID.TID 0000.0001) //       SOUTH: Tile = 000177, Process = 000001, Comm = put
(PID.TID 0000.0001) //                bi = 000177, bj = 000001
(PID.TID 0000.0001) //       NORTH: Tile = 000177, Process = 000001, Comm = put
(PID.TID 0000.0001) //                bi = 000177, bj = 000001
(PID.TID 0000.0001) // Tile number: 000178 (process no. = 000001)
(PID.TID 0000.0001) //        WEST: Tile = 000177, Process = 000001, Comm = put
(PID.TID 0000.0001) //                bi = 000177, bj = 000001
(PID.TID 0000.0001) //        EAST: Tile = 000179, Process = 000001, Comm = put
(PID.TID 0000.0001) //                bi = 000179, bj = 000001
(PID.TID 0000.0001) //       SOUTH: Tile = 000178, Process = 000001, Comm = put
(PID.TID 0000.0001) //                bi = 000178, bj = 000001
(PID.TID 0000.0001) //       NORTH: Tile = 000178, Process = 000001, Comm = put
(PID.TID 0000.0001) //                bi = 000178, bj = 000001
(PID.TID 0000.0001) // Tile number: 000179 (process no. = 000001)
(PID.TID 0000.0001) //        WEST: Tile = 000178, Process = 000001, Comm = put
(PID.TID 0000.0001) //                bi = 000178, bj = 000001
(PID.TID 0000.0001) //        EAST: Tile = 000180, Process = 000001, Comm = put
(PID.TID 0000.0001) //                bi = 000180, bj = 000001
(PID.TID 0000.0001) //       SOUTH: Tile = 000179, Process = 000001, Comm = put
(PID.TID 0000.0001) //                bi = 000179, bj = 000001
(PID.TID 0000.0001) //       NORTH: Tile = 000179, Process = 000001, Comm = put
(PID.TID 0000.0001) //                bi = 000179, bj = 000001
(PID.TID 0000.0001) // Tile number: 000180 (process no. = 000001)
(PID.TID 0000.0001) //        WEST: Tile = 000179, Process = 000001, Comm = put
(PID.TID 0000.0001) //                bi = 000179, bj = 000001
(PID.TID 0000.0001) //        EAST: Tile = 000181, Process = 000001, Comm = put
(PID.TID 0000.0001) //                bi = 000181, bj = 000001
(PID.TID 0000.0001) //       SOUTH: Tile = 000180, Process = 000001, Comm = put
(PID.TID 0000.0001) //                bi = 000180, bj = 000001
(PID.TID 0000.0001) //       NORTH: Tile = 000180, Process = 000001, Comm = put
(PID.TID 0000.0001) //                bi = 000180, bj = 000001
(PID.TID 0000.0001) // Tile number: 000181 (process no. = 000001)
(PID.TID 0000.0001) //        WEST: Tile = 000180, Process = 000001, Comm = put
(PID.TID 0000.0001) //                bi = 000180, bj = 000001
(PID.TID 0000.0001) //        EAST: Tile = 000182, Process = 000001, Comm = put
(PID.TID 0000.0001) //                bi = 000182, bj = 000001
(PID.TID 0000.0001) //       SOUTH: Tile = 000181, Process = 000001, Comm = put
(PID.TID 0000.0001) //                bi = 000181, bj = 000001
(PID.TID 0000.0001) //       NORTH: Tile = 000181, Process = 000001, Comm = put
(PID.TID 0000.0001) //                bi = 000181, bj = 000001
(PID.TID 0000.0001) // Tile number: 000182 (process no. = 000001)
(PID.TID 0000.0001) //        WEST: Tile = 000181, Process = 000001, Comm = put
(PID.TID 0000.0001) //                bi = 000181, bj = 000001
(PID.TID 0000.0001) //        EAST: Tile = 000183, Process = 000001, Comm = put
(PID.TID 0000.0001) //                bi = 000183, bj = 000001
(PID.TID 0000.0001) //       SOUTH: Tile = 000182, Process = 000001, Comm = put
(PID.TID 0000.0001) //                bi = 000182, bj = 000001
(PID.TID 0000.0001) //       NORTH: Tile = 000182, Process = 000001, Comm = put
(PID.TID 0000.0001) //                bi = 000182, bj = 000001
(PID.TID 0000.0001) // Tile number: 000183 (process no. = 000001)
(PID.TID 0000.0001) //        WEST: Tile = 000182, Process = 000001, Comm = put
(PID.TID 0000.0001) //                bi = 000182, bj = 000001
(PID.TID 0000.0001) //        EAST: Tile = 000184, Process = 000001, Comm = put
(PID.TID 0000.0001) //                bi = 000184, bj = 000001
(PID.TID 0000.0001) //       SOUTH: Tile = 000183, Process = 000001, Comm = put
(PID.TID 0000.0001) //                bi = 000183, bj = 000001
(PID.TID 0000.0001) //       NORTH: Tile = 000183, Process = 000001, Comm = put
(PID.TID 0000.0001) //                bi = 000183, bj = 000001
(PID.TID 0000.0001) // Tile number: 000184 (process no. = 000001)
(PID.TID 0000.0001) //        WEST: Tile = 000183, Process = 000001, Comm = put
(PID.TID 0000.0001) //                bi = 000183, bj = 000001
(PID.TID 0000.0001) //        EAST: Tile = 000185, Process = 000001, Comm = put
(PID.TID 0000.0001) //                bi = 000185, bj = 000001
(PID.TID 0000.0001) //       SOUTH: Tile = 000184, Process = 000001, Comm = put
(PID.TID 0000.0001) //                bi = 000184, bj = 000001
(PID.TID 0000.0001) //       NORTH: Tile = 000184, Process = 000001, Comm = put
(PID.TID 0000.0001) //                bi = 000184, bj = 000001
(PID.TID 0000.0001) // Tile number: 000185 (process no. = 000001)
(PID.TID 0000.0001) //        WEST: Tile = 000184, Process = 000001, Comm = put
(PID.TID 0000.0001) //                bi = 000184, bj = 000001
(PID.TID 0000.0001) //        EAST: Tile = 000186, Process = 000001, Comm = put
(PID.TID 0000.0001) //                bi = 000186, bj = 000001
(PID.TID 0000.0001) //       SOUTH: Tile = 000185, Process = 000001, Comm = put
(PID.TID 0000.0001) //                bi = 000185, bj = 000001
(PID.TID 0000.0001) //       NORTH: Tile = 000185, Process = 000001, Comm = put
(PID.TID 0000.0001) //                bi = 000185, bj = 000001
(PID.TID 0000.0001) // Tile number: 000186 (process no. = 000001)
(PID.TID 0000.0001) //        WEST: Tile = 000185, Process = 000001, Comm = put
(PID.TID 0000.0001) //                bi = 000185, bj = 000001
(PID.TID 0000.0001) //        EAST: Tile = 000187, Process = 000001, Comm = put
(PID.TID 0000.0001) //                bi = 000187, bj = 000001
(PID.TID 0000.0001) //       SOUTH: Tile = 000186, Process = 000001, Comm = put
(PID.TID 0000.0001) //                bi = 000186, bj = 000001
(PID.TID 0000.0001) //       NORTH: Tile = 000186, Process = 000001, Comm = put
(PID.TID 0000.0001) //                bi = 000186, bj = 000001
(PID.TID 0000.0001) // Tile number: 000187 (process no. = 000001)
(PID.TID 0000.0001) //        WEST: Tile = 000186, Process = 000001, Comm = put
(PID.TID 0000.0001) //                bi = 000186, bj = 000001
(PID.TID 0000.0001) //        EAST: Tile = 000188, Process = 000001, Comm = put
(PID.TID 0000.0001) //                bi = 000188, bj = 000001
(PID.TID 0000.0001) //       SOUTH: Tile = 000187, Process = 000001, Comm = put
(PID.TID 0000.0001) //                bi = 000187, bj = 000001
(PID.TID 0000.0001) //       NORTH: Tile = 000187, Process = 000001, Comm = put
(PID.TID 0000.0001) //                bi = 000187, bj = 000001
(PID.TID 0000.0001) // Tile number: 000188 (process no. = 000001)
(PID.TID 0000.0001) //        WEST: Tile = 000187, Process = 000001, Comm = put
(PID.TID 0000.0001) //                bi = 000187, bj = 000001
(PID.TID 0000.0001) //        EAST: Tile = 000189, Process = 000001, Comm = put
(PID.TID 0000.0001) //                bi = 000189, bj = 000001
(PID.TID 0000.0001) //       SOUTH: Tile = 000188, Process = 000001, Comm = put
(PID.TID 0000.0001) //                bi = 000188, bj = 000001
(PID.TID 0000.0001) //       NORTH: Tile = 000188, Process = 000001, Comm = put
(PID.TID 0000.0001) //                bi = 000188, bj = 000001
(PID.TID 0000.0001) // Tile number: 000189 (process no. = 000001)
(PID.TID 0000.0001) //        WEST: Tile = 000188, Process = 000001, Comm = put
(PID.TID 0000.0001) //                bi = 000188, bj = 000001
(PID.TID 0000.0001) //        EAST: Tile = 000190, Process = 000001, Comm = put
(PID.TID 0000.0001) //                bi = 000190, bj = 000001
(PID.TID 0000.0001) //       SOUTH: Tile = 000189, Process = 000001, Comm = put
(PID.TID 0000.0001) //                bi = 000189, bj = 000001
(PID.TID 0000.0001) //       NORTH: Tile = 000189, Process = 000001, Comm = put
(PID.TID 0000.0001) //                bi = 000189, bj = 000001
(PID.TID 0000.0001) // Tile number: 000190 (process no. = 000001)
(PID.TID 0000.0001) //        WEST: Tile = 000189, Process = 000001, Comm = put
(PID.TID 0000.0001) //                bi = 000189, bj = 000001
(PID.TID 0000.0001) //        EAST: Tile = 000191, Process = 000001, Comm = put
(PID.TID 0000.0001) //                bi = 000191, bj = 000001
(PID.TID 0000.0001) //       SOUTH: Tile = 000190, Process = 000001, Comm = put
(PID.TID 0000.0001) //                bi = 000190, bj = 000001
(PID.TID 0000.0001) //       NORTH: Tile = 000190, Process = 000001, Comm = put
(PID.TID 0000.0001) //                bi = 000190, bj = 000001
(PID.TID 0000.0001) // Tile number: 000191 (process no. = 000001)
(PID.TID 0000.0001) //        WEST: Tile = 000190, Process = 000001, Comm = put
(PID.TID 0000.0001) //                bi = 000190, bj = 000001
(PID.TID 0000.0001) //        EAST: Tile = 000192, Process = 000001, Comm = put
(PID.TID 0000.0001) //                bi = 000192, bj = 000001
(PID.TID 0000.0001) //       SOUTH: Tile = 000191, Process = 000001, Comm = put
(PID.TID 0000.0001) //                bi = 000191, bj = 000001
(PID.TID 0000.0001) //       NORTH: Tile = 000191, Process = 000001, Comm = put
(PID.TID 0000.0001) //                bi = 000191, bj = 000001
(PID.TID 0000.0001) // Tile number: 000192 (process no. = 000001)
(PID.TID 0000.0001) //        WEST: Tile = 000191, Process = 000001, Comm = put
(PID.TID 0000.0001) //                bi = 000191, bj = 000001
(PID.TID 0000.0001) //        EAST: Tile = 000001, Process = 000001, Comm = put
(PID.TID 0000.0001) //                bi = 000001, bj = 000001
(PID.TID 0000.0001) //       SOUTH: Tile = 000192, Process = 000001, Comm = put
(PID.TID 0000.0001) //                bi = 000192, bj = 000001
(PID.TID 0000.0001) //       NORTH: Tile = 000192, Process = 000001, Comm = put
(PID.TID 0000.0001) //                bi = 000192, bj = 000001
(PID.TID 0000.0001) 
(PID.TID 0000.0001) ===== W2 TILE TOPLOGY =====
(PID.TID 0000.0001)  TILE:    1
(PID.TID 0000.0001)       NEIGHBOUR    1 = TILE    5 Comm = PUT ( PROC =    1)
(PID.TID 0000.0001)       NEIGHBOUR    2 = TILE  189 Comm = PUT ( PROC =    1)
(PID.TID 0000.0001)       NEIGHBOUR    3 = TILE    2 Comm = PUT ( PROC =    1)
(PID.TID 0000.0001)       NEIGHBOUR    4 = TILE  160 Comm = PUT ( PROC =    1)
(PID.TID 0000.0001)  TILE:    2
(PID.TID 0000.0001)       NEIGHBOUR    1 = TILE    6 Comm = PUT ( PROC =    1)
(PID.TID 0000.0001)       NEIGHBOUR    2 = TILE  190 Comm = PUT ( PROC =    1)
(PID.TID 0000.0001)       NEIGHBOUR    3 = TILE    3 Comm = PUT ( PROC =    1)
(PID.TID 0000.0001)       NEIGHBOUR    4 = TILE    1 Comm = PUT ( PROC =    1)
(PID.TID 0000.0001)  TILE:    3
(PID.TID 0000.0001)       NEIGHBOUR    1 = TILE    7 Comm = PUT ( PROC =    1)
(PID.TID 0000.0001)       NEIGHBOUR    2 = TILE  191 Comm = PUT ( PROC =    1)
(PID.TID 0000.0001)       NEIGHBOUR    3 = TILE    4 Comm = PUT ( PROC =    1)
(PID.TID 0000.0001)       NEIGHBOUR    4 = TILE    2 Comm = PUT ( PROC =    1)
(PID.TID 0000.0001)  TILE:    4
(PID.TID 0000.0001)       NEIGHBOUR    1 = TILE    8 Comm = PUT ( PROC =    1)
(PID.TID 0000.0001)       NEIGHBOUR    2 = TILE  192 Comm = PUT ( PROC =    1)
(PID.TID 0000.0001)       NEIGHBOUR    3 = TILE   33 Comm = PUT ( PROC =    1)
(PID.TID 0000.0001)       NEIGHBOUR    4 = TILE    3 Comm = PUT ( PROC =    1)
(PID.TID 0000.0001)  TILE:    5
(PID.TID 0000.0001)       NEIGHBOUR    1 = TILE    9 Comm = PUT ( PROC =    1)
(PID.TID 0000.0001)       NEIGHBOUR    2 = TILE    1 Comm = PUT ( PROC =    1)
(PID.TID 0000.0001)       NEIGHBOUR    3 = TILE    6 Comm = PUT ( PROC =    1)
(PID.TID 0000.0001)       NEIGHBOUR    4 = TILE  160 Comm = PUT ( PROC =    1)
(PID.TID 0000.0001)  TILE:    6
(PID.TID 0000.0001)       NEIGHBOUR    1 = TILE   10 Comm = PUT ( PROC =    1)
(PID.TID 0000.0001)       NEIGHBOUR    2 = TILE    2 Comm = PUT ( PROC =    1)
(PID.TID 0000.0001)       NEIGHBOUR    3 = TILE    7 Comm = PUT ( PROC =    1)
(PID.TID 0000.0001)       NEIGHBOUR    4 = TILE    5 Comm = PUT ( PROC =    1)
(PID.TID 0000.0001)  TILE:    7
(PID.TID 0000.0001)       NEIGHBOUR    1 = TILE   11 Comm = PUT ( PROC =    1)
(PID.TID 0000.0001)       NEIGHBOUR    2 = TILE    3 Comm = PUT ( PROC =    1)
(PID.TID 0000.0001)       NEIGHBOUR    3 = TILE    8 Comm = PUT ( PROC =    1)
(PID.TID 0000.0001)       NEIGHBOUR    4 = TILE    6 Comm = PUT ( PROC =    1)
(PID.TID 0000.0001)  TILE:    8
(PID.TID 0000.0001)       NEIGHBOUR    1 = TILE   12 Comm = PUT ( PROC =    1)
(PID.TID 0000.0001)       NEIGHBOUR    2 = TILE    4 Comm = PUT ( PROC =    1)
(PID.TID 0000.0001)       NEIGHBOUR    3 = TILE   37 Comm = PUT ( PROC =    1)
(PID.TID 0000.0001)       NEIGHBOUR    4 = TILE    7 Comm = PUT ( PROC =    1)
(PID.TID 0000.0001)  TILE:    9
(PID.TID 0000.0001)       NEIGHBOUR    1 = TILE   13 Comm = PUT ( PROC =    1)
(PID.TID 0000.0001)       NEIGHBOUR    2 = TILE    5 Comm = PUT ( PROC =    1)
(PID.TID 0000.0001)       NEIGHBOUR    3 = TILE   10 Comm = PUT ( PROC =    1)
(PID.TID 0000.0001)       NEIGHBOUR    4 = TILE  159 Comm = PUT ( PROC =    1)
(PID.TID 0000.0001)  TILE:   10
(PID.TID 0000.0001)       NEIGHBOUR    1 = TILE   14 Comm = PUT ( PROC =    1)
(PID.TID 0000.0001)       NEIGHBOUR    2 = TILE    6 Comm = PUT ( PROC =    1)
(PID.TID 0000.0001)       NEIGHBOUR    3 = TILE   11 Comm = PUT ( PROC =    1)
(PID.TID 0000.0001)       NEIGHBOUR    4 = TILE    9 Comm = PUT ( PROC =    1)
(PID.TID 0000.0001)  TILE:   11
(PID.TID 0000.0001)       NEIGHBOUR    1 = TILE   15 Comm = PUT ( PROC =    1)
(PID.TID 0000.0001)       NEIGHBOUR    2 = TILE    7 Comm = PUT ( PROC =    1)
(PID.TID 0000.0001)       NEIGHBOUR    3 = TILE   12 Comm = PUT ( PROC =    1)
(PID.TID 0000.0001)       NEIGHBOUR    4 = TILE   10 Comm = PUT ( PROC =    1)
(PID.TID 0000.0001)  TILE:   12
(PID.TID 0000.0001)       NEIGHBOUR    1 = TILE   16 Comm = PUT ( PROC =    1)
(PID.TID 0000.0001)       NEIGHBOUR    2 = TILE    8 Comm = PUT ( PROC =    1)
(PID.TID 0000.0001)       NEIGHBOUR    3 = TILE   41 Comm = PUT ( PROC =    1)
(PID.TID 0000.0001)       NEIGHBOUR    4 = TILE   11 Comm = PUT ( PROC =    1)
(PID.TID 0000.0001)  TILE:   13
(PID.TID 0000.0001)       NEIGHBOUR    1 = TILE   17 Comm = PUT ( PROC =    1)
(PID.TID 0000.0001)       NEIGHBOUR    2 = TILE    9 Comm = PUT ( PROC =    1)
(PID.TID 0000.0001)       NEIGHBOUR    3 = TILE   14 Comm = PUT ( PROC =    1)
(PID.TID 0000.0001)       NEIGHBOUR    4 = TILE  159 Comm = PUT ( PROC =    1)
(PID.TID 0000.0001)  TILE:   14
(PID.TID 0000.0001)       NEIGHBOUR    1 = TILE   18 Comm = PUT ( PROC =    1)
(PID.TID 0000.0001)       NEIGHBOUR    2 = TILE   10 Comm = PUT ( PROC =    1)
(PID.TID 0000.0001)       NEIGHBOUR    3 = TILE   15 Comm = PUT ( PROC =    1)
(PID.TID 0000.0001)       NEIGHBOUR    4 = TILE   13 Comm = PUT ( PROC =    1)
(PID.TID 0000.0001)  TILE:   15
(PID.TID 0000.0001)       NEIGHBOUR    1 = TILE   19 Comm = PUT ( PROC =    1)
(PID.TID 0000.0001)       NEIGHBOUR    2 = TILE   11 Comm = PUT ( PROC =    1)
(PID.TID 0000.0001)       NEIGHBOUR    3 = TILE   16 Comm = PUT ( PROC =    1)
(PID.TID 0000.0001)       NEIGHBOUR    4 = TILE   14 Comm = PUT ( PROC =    1)
(PID.TID 0000.0001)  TILE:   16
(PID.TID 0000.0001)       NEIGHBOUR    1 = TILE   20 Comm = PUT ( PROC =    1)
(PID.TID 0000.0001)       NEIGHBOUR    2 = TILE   12 Comm = PUT ( PROC =    1)
(PID.TID 0000.0001)       NEIGHBOUR    3 = TILE   45 Comm = PUT ( PROC =    1)
(PID.TID 0000.0001)       NEIGHBOUR    4 = TILE   15 Comm = PUT ( PROC =    1)
(PID.TID 0000.0001)  TILE:   17
(PID.TID 0000.0001)       NEIGHBOUR    1 = TILE   21 Comm = PUT ( PROC =    1)
(PID.TID 0000.0001)       NEIGHBOUR    2 = TILE   13 Comm = PUT ( PROC =    1)
(PID.TID 0000.0001)       NEIGHBOUR    3 = TILE   18 Comm = PUT ( PROC =    1)
(PID.TID 0000.0001)       NEIGHBOUR    4 = TILE  158 Comm = PUT ( PROC =    1)
(PID.TID 0000.0001)  TILE:   18
(PID.TID 0000.0001)       NEIGHBOUR    1 = TILE   22 Comm = PUT ( PROC =    1)
(PID.TID 0000.0001)       NEIGHBOUR    2 = TILE   14 Comm = PUT ( PROC =    1)
(PID.TID 0000.0001)       NEIGHBOUR    3 = TILE   19 Comm = PUT ( PROC =    1)
(PID.TID 0000.0001)       NEIGHBOUR    4 = TILE   17 Comm = PUT ( PROC =    1)
(PID.TID 0000.0001)  TILE:   19
(PID.TID 0000.0001)       NEIGHBOUR    1 = TILE   23 Comm = PUT ( PROC =    1)
(PID.TID 0000.0001)       NEIGHBOUR    2 = TILE   15 Comm = PUT ( PROC =    1)
(PID.TID 0000.0001)       NEIGHBOUR    3 = TILE   20 Comm = PUT ( PROC =    1)
(PID.TID 0000.0001)       NEIGHBOUR    4 = TILE   18 Comm = PUT ( PROC =    1)
(PID.TID 0000.0001)  TILE:   20
(PID.TID 0000.0001)       NEIGHBOUR    1 = TILE   24 Comm = PUT ( PROC =    1)
(PID.TID 0000.0001)       NEIGHBOUR    2 = TILE   16 Comm = PUT ( PROC =    1)
(PID.TID 0000.0001)       NEIGHBOUR    3 = TILE   49 Comm = PUT ( PROC =    1)
(PID.TID 0000.0001)       NEIGHBOUR    4 = TILE   19 Comm = PUT ( PROC =    1)
(PID.TID 0000.0001)  TILE:   21
(PID.TID 0000.0001)       NEIGHBOUR    1 = TILE   25 Comm = PUT ( PROC =    1)
(PID.TID 0000.0001)       NEIGHBOUR    2 = TILE   17 Comm = PUT ( PROC =    1)
(PID.TID 0000.0001)       NEIGHBOUR    3 = TILE   22 Comm = PUT ( PROC =    1)
(PID.TID 0000.0001)       NEIGHBOUR    4 = TILE  158 Comm = PUT ( PROC =    1)
(PID.TID 0000.0001)  TILE:   22
(PID.TID 0000.0001)       NEIGHBOUR    1 = TILE   26 Comm = PUT ( PROC =    1)
(PID.TID 0000.0001)       NEIGHBOUR    2 = TILE   18 Comm = PUT ( PROC =    1)
(PID.TID 0000.0001)       NEIGHBOUR    3 = TILE   23 Comm = PUT ( PROC =    1)
(PID.TID 0000.0001)       NEIGHBOUR    4 = TILE   21 Comm = PUT ( PROC =    1)
(PID.TID 0000.0001)  TILE:   23
(PID.TID 0000.0001)       NEIGHBOUR    1 = TILE   27 Comm = PUT ( PROC =    1)
(PID.TID 0000.0001)       NEIGHBOUR    2 = TILE   19 Comm = PUT ( PROC =    1)
(PID.TID 0000.0001)       NEIGHBOUR    3 = TILE   24 Comm = PUT ( PROC =    1)
(PID.TID 0000.0001)       NEIGHBOUR    4 = TILE   22 Comm = PUT ( PROC =    1)
(PID.TID 0000.0001)  TILE:   24
(PID.TID 0000.0001)       NEIGHBOUR    1 = TILE   28 Comm = PUT ( PROC =    1)
(PID.TID 0000.0001)       NEIGHBOUR    2 = TILE   20 Comm = PUT ( PROC =    1)
(PID.TID 0000.0001)       NEIGHBOUR    3 = TILE   53 Comm = PUT ( PROC =    1)
(PID.TID 0000.0001)       NEIGHBOUR    4 = TILE   23 Comm = PUT ( PROC =    1)
(PID.TID 0000.0001)  TILE:   25
(PID.TID 0000.0001)       NEIGHBOUR    1 = TILE   29 Comm = PUT ( PROC =    1)
(PID.TID 0000.0001)       NEIGHBOUR    2 = TILE   21 Comm = PUT ( PROC =    1)
(PID.TID 0000.0001)       NEIGHBOUR    3 = TILE   26 Comm = PUT ( PROC =    1)
(PID.TID 0000.0001)       NEIGHBOUR    4 = TILE  157 Comm = PUT ( PROC =    1)
(PID.TID 0000.0001)  TILE:   26
(PID.TID 0000.0001)       NEIGHBOUR    1 = TILE   30 Comm = PUT ( PROC =    1)
(PID.TID 0000.0001)       NEIGHBOUR    2 = TILE   22 Comm = PUT ( PROC =    1)
(PID.TID 0000.0001)       NEIGHBOUR    3 = TILE   27 Comm = PUT ( PROC =    1)
(PID.TID 0000.0001)       NEIGHBOUR    4 = TILE   25 Comm = PUT ( PROC =    1)
(PID.TID 0000.0001)  TILE:   27
(PID.TID 0000.0001)       NEIGHBOUR    1 = TILE   31 Comm = PUT ( PROC =    1)
(PID.TID 0000.0001)       NEIGHBOUR    2 = TILE   23 Comm = PUT ( PROC =    1)
(PID.TID 0000.0001)       NEIGHBOUR    3 = TILE   28 Comm = PUT ( PROC =    1)
(PID.TID 0000.0001)       NEIGHBOUR    4 = TILE   26 Comm = PUT ( PROC =    1)
(PID.TID 0000.0001)  TILE:   28
(PID.TID 0000.0001)       NEIGHBOUR    1 = TILE   32 Comm = PUT ( PROC =    1)
(PID.TID 0000.0001)       NEIGHBOUR    2 = TILE   24 Comm = PUT ( PROC =    1)
(PID.TID 0000.0001)       NEIGHBOUR    3 = TILE   57 Comm = PUT ( PROC =    1)
(PID.TID 0000.0001)       NEIGHBOUR    4 = TILE   27 Comm = PUT ( PROC =    1)
(PID.TID 0000.0001)  TILE:   29
(PID.TID 0000.0001)       NEIGHBOUR    1 = TILE   89 Comm = PUT ( PROC =    1)
(PID.TID 0000.0001)       NEIGHBOUR    2 = TILE   93 Comm = PUT ( PROC =    1)
(PID.TID 0000.0001)       NEIGHBOUR    3 = TILE   25 Comm = PUT ( PROC =    1)
(PID.TID 0000.0001)       NEIGHBOUR    4 = TILE   30 Comm = PUT ( PROC =    1)
(PID.TID 0000.0001)       NEIGHBOUR    5 = TILE  157 Comm = PUT ( PROC =    1)
(PID.TID 0000.0001)  TILE:   30
(PID.TID 0000.0001)       NEIGHBOUR    1 = TILE   81 Comm = PUT ( PROC =    1)
(PID.TID 0000.0001)       NEIGHBOUR    2 = TILE   85 Comm = PUT ( PROC =    1)
(PID.TID 0000.0001)       NEIGHBOUR    3 = TILE   26 Comm = PUT ( PROC =    1)
(PID.TID 0000.0001)       NEIGHBOUR    4 = TILE   31 Comm = PUT ( PROC =    1)
(PID.TID 0000.0001)       NEIGHBOUR    5 = TILE   29 Comm = PUT ( PROC =    1)
(PID.TID 0000.0001)  TILE:   31
(PID.TID 0000.0001)       NEIGHBOUR    1 = TILE   73 Comm = PUT ( PROC =    1)
(PID.TID 0000.0001)       NEIGHBOUR    2 = TILE   77 Comm = PUT ( PROC =    1)
(PID.TID 0000.0001)       NEIGHBOUR    3 = TILE   27 Comm = PUT ( PROC =    1)
(PID.TID 0000.0001)       NEIGHBOUR    4 = TILE   32 Comm = PUT ( PROC =    1)
(PID.TID 0000.0001)       NEIGHBOUR    5 = TILE   30 Comm = PUT ( PROC =    1)
(PID.TID 0000.0001)  TILE:   32
(PID.TID 0000.0001)       NEIGHBOUR    1 = TILE   65 Comm = PUT ( PROC =    1)
(PID.TID 0000.0001)       NEIGHBOUR    2 = TILE   69 Comm = PUT ( PROC =    1)
(PID.TID 0000.0001)       NEIGHBOUR    3 = TILE   28 Comm = PUT ( PROC =    1)
(PID.TID 0000.0001)       NEIGHBOUR    4 = TILE   61 Comm = PUT ( PROC =    1)
(PID.TID 0000.0001)       NEIGHBOUR    5 = TILE   31 Comm = PUT ( PROC =    1)
(PID.TID 0000.0001)  TILE:   33
(PID.TID 0000.0001)       NEIGHBOUR    1 = TILE   37 Comm = PUT ( PROC =    1)
(PID.TID 0000.0001)       NEIGHBOUR    2 = TILE  188 Comm = PUT ( PROC =    1)
(PID.TID 0000.0001)       NEIGHBOUR    3 = TILE  192 Comm = PUT ( PROC =    1)
(PID.TID 0000.0001)       NEIGHBOUR    4 = TILE   34 Comm = PUT ( PROC =    1)
(PID.TID 0000.0001)       NEIGHBOUR    5 = TILE    4 Comm = PUT ( PROC =    1)
(PID.TID 0000.0001)  TILE:   34
(PID.TID 0000.0001)       NEIGHBOUR    1 = TILE   38 Comm = PUT ( PROC =    1)
(PID.TID 0000.0001)       NEIGHBOUR    2 = TILE  180 Comm = PUT ( PROC =    1)
(PID.TID 0000.0001)       NEIGHBOUR    3 = TILE  184 Comm = PUT ( PROC =    1)
(PID.TID 0000.0001)       NEIGHBOUR    4 = TILE   35 Comm = PUT ( PROC =    1)
(PID.TID 0000.0001)       NEIGHBOUR    5 = TILE   33 Comm = PUT ( PROC =    1)
(PID.TID 0000.0001)  TILE:   35
(PID.TID 0000.0001)       NEIGHBOUR    1 = TILE   39 Comm = PUT ( PROC =    1)
(PID.TID 0000.0001)       NEIGHBOUR    2 = TILE  172 Comm = PUT ( PROC =    1)
(PID.TID 0000.0001)       NEIGHBOUR    3 = TILE  176 Comm = PUT ( PROC =    1)
(PID.TID 0000.0001)       NEIGHBOUR    4 = TILE   36 Comm = PUT ( PROC =    1)
(PID.TID 0000.0001)       NEIGHBOUR    5 = TILE   34 Comm = PUT ( PROC =    1)
(PID.TID 0000.0001)  TILE:   36
(PID.TID 0000.0001)       NEIGHBOUR    1 = TILE   40 Comm = PUT ( PROC =    1)
(PID.TID 0000.0001)       NEIGHBOUR    2 = TILE  164 Comm = PUT ( PROC =    1)
(PID.TID 0000.0001)       NEIGHBOUR    3 = TILE  168 Comm = PUT ( PROC =    1)
(PID.TID 0000.0001)       NEIGHBOUR    4 = TILE  100 Comm = PUT ( PROC =    1)
(PID.TID 0000.0001)       NEIGHBOUR    5 = TILE   35 Comm = PUT ( PROC =    1)
(PID.TID 0000.0001)  TILE:   37
(PID.TID 0000.0001)       NEIGHBOUR    1 = TILE   41 Comm = PUT ( PROC =    1)
(PID.TID 0000.0001)       NEIGHBOUR    2 = TILE   33 Comm = PUT ( PROC =    1)
(PID.TID 0000.0001)       NEIGHBOUR    3 = TILE   38 Comm = PUT ( PROC =    1)
(PID.TID 0000.0001)       NEIGHBOUR    4 = TILE    8 Comm = PUT ( PROC =    1)
(PID.TID 0000.0001)  TILE:   38
(PID.TID 0000.0001)       NEIGHBOUR    1 = TILE   42 Comm = PUT ( PROC =    1)
(PID.TID 0000.0001)       NEIGHBOUR    2 = TILE   34 Comm = PUT ( PROC =    1)
(PID.TID 0000.0001)       NEIGHBOUR    3 = TILE   39 Comm = PUT ( PROC =    1)
(PID.TID 0000.0001)       NEIGHBOUR    4 = TILE   37 Comm = PUT ( PROC =    1)
(PID.TID 0000.0001)  TILE:   39
(PID.TID 0000.0001)       NEIGHBOUR    1 = TILE   43 Comm = PUT ( PROC =    1)
(PID.TID 0000.0001)       NEIGHBOUR    2 = TILE   35 Comm = PUT ( PROC =    1)
(PID.TID 0000.0001)       NEIGHBOUR    3 = TILE   40 Comm = PUT ( PROC =    1)
(PID.TID 0000.0001)       NEIGHBOUR    4 = TILE   38 Comm = PUT ( PROC =    1)
(PID.TID 0000.0001)  TILE:   40
(PID.TID 0000.0001)       NEIGHBOUR    1 = TILE   44 Comm = PUT ( PROC =    1)
(PID.TID 0000.0001)       NEIGHBOUR    2 = TILE   36 Comm = PUT ( PROC =    1)
(PID.TID 0000.0001)       NEIGHBOUR    3 = TILE  100 Comm = PUT ( PROC =    1)
(PID.TID 0000.0001)       NEIGHBOUR    4 = TILE   39 Comm = PUT ( PROC =    1)
(PID.TID 0000.0001)  TILE:   41
(PID.TID 0000.0001)       NEIGHBOUR    1 = TILE   45 Comm = PUT ( PROC =    1)
(PID.TID 0000.0001)       NEIGHBOUR    2 = TILE   37 Comm = PUT ( PROC =    1)
(PID.TID 0000.0001)       NEIGHBOUR    3 = TILE   42 Comm = PUT ( PROC =    1)
(PID.TID 0000.0001)       NEIGHBOUR    4 = TILE   12 Comm = PUT ( PROC =    1)
(PID.TID 0000.0001)  TILE:   42
(PID.TID 0000.0001)       NEIGHBOUR    1 = TILE   46 Comm = PUT ( PROC =    1)
(PID.TID 0000.0001)       NEIGHBOUR    2 = TILE   38 Comm = PUT ( PROC =    1)
(PID.TID 0000.0001)       NEIGHBOUR    3 = TILE   43 Comm = PUT ( PROC =    1)
(PID.TID 0000.0001)       NEIGHBOUR    4 = TILE   41 Comm = PUT ( PROC =    1)
(PID.TID 0000.0001)  TILE:   43
(PID.TID 0000.0001)       NEIGHBOUR    1 = TILE   47 Comm = PUT ( PROC =    1)
(PID.TID 0000.0001)       NEIGHBOUR    2 = TILE   39 Comm = PUT ( PROC =    1)
(PID.TID 0000.0001)       NEIGHBOUR    3 = TILE   44 Comm = PUT ( PROC =    1)
(PID.TID 0000.0001)       NEIGHBOUR    4 = TILE   42 Comm = PUT ( PROC =    1)
(PID.TID 0000.0001)  TILE:   44
(PID.TID 0000.0001)       NEIGHBOUR    1 = TILE   48 Comm = PUT ( PROC =    1)
(PID.TID 0000.0001)       NEIGHBOUR    2 = TILE   40 Comm = PUT ( PROC =    1)
(PID.TID 0000.0001)       NEIGHBOUR    3 = TILE   99 Comm = PUT ( PROC =    1)
(PID.TID 0000.0001)       NEIGHBOUR    4 = TILE   43 Comm = PUT ( PROC =    1)
(PID.TID 0000.0001)  TILE:   45
(PID.TID 0000.0001)       NEIGHBOUR    1 = TILE   49 Comm = PUT ( PROC =    1)
(PID.TID 0000.0001)       NEIGHBOUR    2 = TILE   41 Comm = PUT ( PROC =    1)
(PID.TID 0000.0001)       NEIGHBOUR    3 = TILE   46 Comm = PUT ( PROC =    1)
(PID.TID 0000.0001)       NEIGHBOUR    4 = TILE   16 Comm = PUT ( PROC =    1)
(PID.TID 0000.0001)  TILE:   46
(PID.TID 0000.0001)       NEIGHBOUR    1 = TILE   50 Comm = PUT ( PROC =    1)
(PID.TID 0000.0001)       NEIGHBOUR    2 = TILE   42 Comm = PUT ( PROC =    1)
(PID.TID 0000.0001)       NEIGHBOUR    3 = TILE   47 Comm = PUT ( PROC =    1)
(PID.TID 0000.0001)       NEIGHBOUR    4 = TILE   45 Comm = PUT ( PROC =    1)
(PID.TID 0000.0001)  TILE:   47
(PID.TID 0000.0001)       NEIGHBOUR    1 = TILE   51 Comm = PUT ( PROC =    1)
(PID.TID 0000.0001)       NEIGHBOUR    2 = TILE   43 Comm = PUT ( PROC =    1)
(PID.TID 0000.0001)       NEIGHBOUR    3 = TILE   48 Comm = PUT ( PROC =    1)
(PID.TID 0000.0001)       NEIGHBOUR    4 = TILE   46 Comm = PUT ( PROC =    1)
(PID.TID 0000.0001)  TILE:   48
(PID.TID 0000.0001)       NEIGHBOUR    1 = TILE   52 Comm = PUT ( PROC =    1)
(PID.TID 0000.0001)       NEIGHBOUR    2 = TILE   44 Comm = PUT ( PROC =    1)
(PID.TID 0000.0001)       NEIGHBOUR    3 = TILE   99 Comm = PUT ( PROC =    1)
(PID.TID 0000.0001)       NEIGHBOUR    4 = TILE   47 Comm = PUT ( PROC =    1)
(PID.TID 0000.0001)  TILE:   49
(PID.TID 0000.0001)       NEIGHBOUR    1 = TILE   53 Comm = PUT ( PROC =    1)
(PID.TID 0000.0001)       NEIGHBOUR    2 = TILE   45 Comm = PUT ( PROC =    1)
(PID.TID 0000.0001)       NEIGHBOUR    3 = TILE   50 Comm = PUT ( PROC =    1)
(PID.TID 0000.0001)       NEIGHBOUR    4 = TILE   20 Comm = PUT ( PROC =    1)
(PID.TID 0000.0001)  TILE:   50
(PID.TID 0000.0001)       NEIGHBOUR    1 = TILE   54 Comm = PUT ( PROC =    1)
(PID.TID 0000.0001)       NEIGHBOUR    2 = TILE   46 Comm = PUT ( PROC =    1)
(PID.TID 0000.0001)       NEIGHBOUR    3 = TILE   51 Comm = PUT ( PROC =    1)
(PID.TID 0000.0001)       NEIGHBOUR    4 = TILE   49 Comm = PUT ( PROC =    1)
(PID.TID 0000.0001)  TILE:   51
(PID.TID 0000.0001)       NEIGHBOUR    1 = TILE   55 Comm = PUT ( PROC =    1)
(PID.TID 0000.0001)       NEIGHBOUR    2 = TILE   47 Comm = PUT ( PROC =    1)
(PID.TID 0000.0001)       NEIGHBOUR    3 = TILE   52 Comm = PUT ( PROC =    1)
(PID.TID 0000.0001)       NEIGHBOUR    4 = TILE   50 Comm = PUT ( PROC =    1)
(PID.TID 0000.0001)  TILE:   52
(PID.TID 0000.0001)       NEIGHBOUR    1 = TILE   56 Comm = PUT ( PROC =    1)
(PID.TID 0000.0001)       NEIGHBOUR    2 = TILE   48 Comm = PUT ( PROC =    1)
(PID.TID 0000.0001)       NEIGHBOUR    3 = TILE   98 Comm = PUT ( PROC =    1)
(PID.TID 0000.0001)       NEIGHBOUR    4 = TILE   51 Comm = PUT ( PROC =    1)
(PID.TID 0000.0001)  TILE:   53
(PID.TID 0000.0001)       NEIGHBOUR    1 = TILE   57 Comm = PUT ( PROC =    1)
(PID.TID 0000.0001)       NEIGHBOUR    2 = TILE   49 Comm = PUT ( PROC =    1)
(PID.TID 0000.0001)       NEIGHBOUR    3 = TILE   54 Comm = PUT ( PROC =    1)
(PID.TID 0000.0001)       NEIGHBOUR    4 = TILE   24 Comm = PUT ( PROC =    1)
(PID.TID 0000.0001)  TILE:   54
(PID.TID 0000.0001)       NEIGHBOUR    1 = TILE   58 Comm = PUT ( PROC =    1)
(PID.TID 0000.0001)       NEIGHBOUR    2 = TILE   50 Comm = PUT ( PROC =    1)
(PID.TID 0000.0001)       NEIGHBOUR    3 = TILE   55 Comm = PUT ( PROC =    1)
(PID.TID 0000.0001)       NEIGHBOUR    4 = TILE   53 Comm = PUT ( PROC =    1)
(PID.TID 0000.0001)  TILE:   55
(PID.TID 0000.0001)       NEIGHBOUR    1 = TILE   59 Comm = PUT ( PROC =    1)
(PID.TID 0000.0001)       NEIGHBOUR    2 = TILE   51 Comm = PUT ( PROC =    1)
(PID.TID 0000.0001)       NEIGHBOUR    3 = TILE   56 Comm = PUT ( PROC =    1)
(PID.TID 0000.0001)       NEIGHBOUR    4 = TILE   54 Comm = PUT ( PROC =    1)
(PID.TID 0000.0001)  TILE:   56
(PID.TID 0000.0001)       NEIGHBOUR    1 = TILE   60 Comm = PUT ( PROC =    1)
(PID.TID 0000.0001)       NEIGHBOUR    2 = TILE   52 Comm = PUT ( PROC =    1)
(PID.TID 0000.0001)       NEIGHBOUR    3 = TILE   98 Comm = PUT ( PROC =    1)
(PID.TID 0000.0001)       NEIGHBOUR    4 = TILE   55 Comm = PUT ( PROC =    1)
(PID.TID 0000.0001)  TILE:   57
(PID.TID 0000.0001)       NEIGHBOUR    1 = TILE   61 Comm = PUT ( PROC =    1)
(PID.TID 0000.0001)       NEIGHBOUR    2 = TILE   53 Comm = PUT ( PROC =    1)
(PID.TID 0000.0001)       NEIGHBOUR    3 = TILE   58 Comm = PUT ( PROC =    1)
(PID.TID 0000.0001)       NEIGHBOUR    4 = TILE   28 Comm = PUT ( PROC =    1)
(PID.TID 0000.0001)  TILE:   58
(PID.TID 0000.0001)       NEIGHBOUR    1 = TILE   62 Comm = PUT ( PROC =    1)
(PID.TID 0000.0001)       NEIGHBOUR    2 = TILE   54 Comm = PUT ( PROC =    1)
(PID.TID 0000.0001)       NEIGHBOUR    3 = TILE   59 Comm = PUT ( PROC =    1)
(PID.TID 0000.0001)       NEIGHBOUR    4 = TILE   57 Comm = PUT ( PROC =    1)
(PID.TID 0000.0001)  TILE:   59
(PID.TID 0000.0001)       NEIGHBOUR    1 = TILE   63 Comm = PUT ( PROC =    1)
(PID.TID 0000.0001)       NEIGHBOUR    2 = TILE   55 Comm = PUT ( PROC =    1)
(PID.TID 0000.0001)       NEIGHBOUR    3 = TILE   60 Comm = PUT ( PROC =    1)
(PID.TID 0000.0001)       NEIGHBOUR    4 = TILE   58 Comm = PUT ( PROC =    1)
(PID.TID 0000.0001)  TILE:   60
(PID.TID 0000.0001)       NEIGHBOUR    1 = TILE   64 Comm = PUT ( PROC =    1)
(PID.TID 0000.0001)       NEIGHBOUR    2 = TILE   56 Comm = PUT ( PROC =    1)
(PID.TID 0000.0001)       NEIGHBOUR    3 = TILE   97 Comm = PUT ( PROC =    1)
(PID.TID 0000.0001)       NEIGHBOUR    4 = TILE   59 Comm = PUT ( PROC =    1)
(PID.TID 0000.0001)  TILE:   61
(PID.TID 0000.0001)       NEIGHBOUR    1 = TILE   65 Comm = PUT ( PROC =    1)
(PID.TID 0000.0001)       NEIGHBOUR    2 = TILE   57 Comm = PUT ( PROC =    1)
(PID.TID 0000.0001)       NEIGHBOUR    3 = TILE   62 Comm = PUT ( PROC =    1)
(PID.TID 0000.0001)       NEIGHBOUR    4 = TILE   32 Comm = PUT ( PROC =    1)
(PID.TID 0000.0001)  TILE:   62
(PID.TID 0000.0001)       NEIGHBOUR    1 = TILE   66 Comm = PUT ( PROC =    1)
(PID.TID 0000.0001)       NEIGHBOUR    2 = TILE   58 Comm = PUT ( PROC =    1)
(PID.TID 0000.0001)       NEIGHBOUR    3 = TILE   63 Comm = PUT ( PROC =    1)
(PID.TID 0000.0001)       NEIGHBOUR    4 = TILE   61 Comm = PUT ( PROC =    1)
(PID.TID 0000.0001)  TILE:   63
(PID.TID 0000.0001)       NEIGHBOUR    1 = TILE   67 Comm = PUT ( PROC =    1)
(PID.TID 0000.0001)       NEIGHBOUR    2 = TILE   59 Comm = PUT ( PROC =    1)
(PID.TID 0000.0001)       NEIGHBOUR    3 = TILE   64 Comm = PUT ( PROC =    1)
(PID.TID 0000.0001)       NEIGHBOUR    4 = TILE   62 Comm = PUT ( PROC =    1)
(PID.TID 0000.0001)  TILE:   64
(PID.TID 0000.0001)       NEIGHBOUR    1 = TILE   68 Comm = PUT ( PROC =    1)
(PID.TID 0000.0001)       NEIGHBOUR    2 = TILE   60 Comm = PUT ( PROC =    1)
(PID.TID 0000.0001)       NEIGHBOUR    3 = TILE   97 Comm = PUT ( PROC =    1)
(PID.TID 0000.0001)       NEIGHBOUR    4 = TILE   63 Comm = PUT ( PROC =    1)
(PID.TID 0000.0001)  TILE:   65
(PID.TID 0000.0001)       NEIGHBOUR    1 = TILE   69 Comm = PUT ( PROC =    1)
(PID.TID 0000.0001)       NEIGHBOUR    2 = TILE   61 Comm = PUT ( PROC =    1)
(PID.TID 0000.0001)       NEIGHBOUR    3 = TILE   66 Comm = PUT ( PROC =    1)
(PID.TID 0000.0001)       NEIGHBOUR    4 = TILE   32 Comm = PUT ( PROC =    1)
(PID.TID 0000.0001)  TILE:   66
(PID.TID 0000.0001)       NEIGHBOUR    1 = TILE   70 Comm = PUT ( PROC =    1)
(PID.TID 0000.0001)       NEIGHBOUR    2 = TILE   62 Comm = PUT ( PROC =    1)
(PID.TID 0000.0001)       NEIGHBOUR    3 = TILE   67 Comm = PUT ( PROC =    1)
(PID.TID 0000.0001)       NEIGHBOUR    4 = TILE   65 Comm = PUT ( PROC =    1)
(PID.TID 0000.0001)  TILE:   67
(PID.TID 0000.0001)       NEIGHBOUR    1 = TILE   71 Comm = PUT ( PROC =    1)
(PID.TID 0000.0001)       NEIGHBOUR    2 = TILE   63 Comm = PUT ( PROC =    1)
(PID.TID 0000.0001)       NEIGHBOUR    3 = TILE   68 Comm = PUT ( PROC =    1)
(PID.TID 0000.0001)       NEIGHBOUR    4 = TILE   66 Comm = PUT ( PROC =    1)
(PID.TID 0000.0001)  TILE:   68
(PID.TID 0000.0001)       NEIGHBOUR    1 = TILE   72 Comm = PUT ( PROC =    1)
(PID.TID 0000.0001)       NEIGHBOUR    2 = TILE   64 Comm = PUT ( PROC =    1)
(PID.TID 0000.0001)       NEIGHBOUR    3 = TILE   97 Comm = PUT ( PROC =    1)
(PID.TID 0000.0001)       NEIGHBOUR    4 = TILE   67 Comm = PUT ( PROC =    1)
(PID.TID 0000.0001)  TILE:   69
(PID.TID 0000.0001)       NEIGHBOUR    1 = TILE   73 Comm = PUT ( PROC =    1)
(PID.TID 0000.0001)       NEIGHBOUR    2 = TILE   65 Comm = PUT ( PROC =    1)
(PID.TID 0000.0001)       NEIGHBOUR    3 = TILE   70 Comm = PUT ( PROC =    1)
(PID.TID 0000.0001)       NEIGHBOUR    4 = TILE   32 Comm = PUT ( PROC =    1)
(PID.TID 0000.0001)  TILE:   70
(PID.TID 0000.0001)       NEIGHBOUR    1 = TILE   74 Comm = PUT ( PROC =    1)
(PID.TID 0000.0001)       NEIGHBOUR    2 = TILE   66 Comm = PUT ( PROC =    1)
(PID.TID 0000.0001)       NEIGHBOUR    3 = TILE   71 Comm = PUT ( PROC =    1)
(PID.TID 0000.0001)       NEIGHBOUR    4 = TILE   69 Comm = PUT ( PROC =    1)
(PID.TID 0000.0001)  TILE:   71
(PID.TID 0000.0001)       NEIGHBOUR    1 = TILE   75 Comm = PUT ( PROC =    1)
(PID.TID 0000.0001)       NEIGHBOUR    2 = TILE   67 Comm = PUT ( PROC =    1)
(PID.TID 0000.0001)       NEIGHBOUR    3 = TILE   72 Comm = PUT ( PROC =    1)
(PID.TID 0000.0001)       NEIGHBOUR    4 = TILE   70 Comm = PUT ( PROC =    1)
(PID.TID 0000.0001)  TILE:   72
(PID.TID 0000.0001)       NEIGHBOUR    1 = TILE   76 Comm = PUT ( PROC =    1)
(PID.TID 0000.0001)       NEIGHBOUR    2 = TILE   68 Comm = PUT ( PROC =    1)
(PID.TID 0000.0001)       NEIGHBOUR    3 = TILE  101 Comm = PUT ( PROC =    1)
(PID.TID 0000.0001)       NEIGHBOUR    4 = TILE   71 Comm = PUT ( PROC =    1)
(PID.TID 0000.0001)  TILE:   73
(PID.TID 0000.0001)       NEIGHBOUR    1 = TILE   77 Comm = PUT ( PROC =    1)
(PID.TID 0000.0001)       NEIGHBOUR    2 = TILE   69 Comm = PUT ( PROC =    1)
(PID.TID 0000.0001)       NEIGHBOUR    3 = TILE   74 Comm = PUT ( PROC =    1)
(PID.TID 0000.0001)       NEIGHBOUR    4 = TILE   31 Comm = PUT ( PROC =    1)
(PID.TID 0000.0001)  TILE:   74
(PID.TID 0000.0001)       NEIGHBOUR    1 = TILE   78 Comm = PUT ( PROC =    1)
(PID.TID 0000.0001)       NEIGHBOUR    2 = TILE   70 Comm = PUT ( PROC =    1)
(PID.TID 0000.0001)       NEIGHBOUR    3 = TILE   75 Comm = PUT ( PROC =    1)
(PID.TID 0000.0001)       NEIGHBOUR    4 = TILE   73 Comm = PUT ( PROC =    1)
(PID.TID 0000.0001)  TILE:   75
(PID.TID 0000.0001)       NEIGHBOUR    1 = TILE   79 Comm = PUT ( PROC =    1)
(PID.TID 0000.0001)       NEIGHBOUR    2 = TILE   71 Comm = PUT ( PROC =    1)
(PID.TID 0000.0001)       NEIGHBOUR    3 = TILE   76 Comm = PUT ( PROC =    1)
(PID.TID 0000.0001)       NEIGHBOUR    4 = TILE   74 Comm = PUT ( PROC =    1)
(PID.TID 0000.0001)  TILE:   76
(PID.TID 0000.0001)       NEIGHBOUR    1 = TILE   80 Comm = PUT ( PROC =    1)
(PID.TID 0000.0001)       NEIGHBOUR    2 = TILE   72 Comm = PUT ( PROC =    1)
(PID.TID 0000.0001)       NEIGHBOUR    3 = TILE  105 Comm = PUT ( PROC =    1)
(PID.TID 0000.0001)       NEIGHBOUR    4 = TILE   75 Comm = PUT ( PROC =    1)
(PID.TID 0000.0001)  TILE:   77
(PID.TID 0000.0001)       NEIGHBOUR    1 = TILE   81 Comm = PUT ( PROC =    1)
(PID.TID 0000.0001)       NEIGHBOUR    2 = TILE   73 Comm = PUT ( PROC =    1)
(PID.TID 0000.0001)       NEIGHBOUR    3 = TILE   78 Comm = PUT ( PROC =    1)
(PID.TID 0000.0001)       NEIGHBOUR    4 = TILE   31 Comm = PUT ( PROC =    1)
(PID.TID 0000.0001)  TILE:   78
(PID.TID 0000.0001)       NEIGHBOUR    1 = TILE   82 Comm = PUT ( PROC =    1)
(PID.TID 0000.0001)       NEIGHBOUR    2 = TILE   74 Comm = PUT ( PROC =    1)
(PID.TID 0000.0001)       NEIGHBOUR    3 = TILE   79 Comm = PUT ( PROC =    1)
(PID.TID 0000.0001)       NEIGHBOUR    4 = TILE   77 Comm = PUT ( PROC =    1)
(PID.TID 0000.0001)  TILE:   79
(PID.TID 0000.0001)       NEIGHBOUR    1 = TILE   83 Comm = PUT ( PROC =    1)
(PID.TID 0000.0001)       NEIGHBOUR    2 = TILE   75 Comm = PUT ( PROC =    1)
(PID.TID 0000.0001)       NEIGHBOUR    3 = TILE   80 Comm = PUT ( PROC =    1)
(PID.TID 0000.0001)       NEIGHBOUR    4 = TILE   78 Comm = PUT ( PROC =    1)
(PID.TID 0000.0001)  TILE:   80
(PID.TID 0000.0001)       NEIGHBOUR    1 = TILE   84 Comm = PUT ( PROC =    1)
(PID.TID 0000.0001)       NEIGHBOUR    2 = TILE   76 Comm = PUT ( PROC =    1)
(PID.TID 0000.0001)       NEIGHBOUR    3 = TILE  109 Comm = PUT ( PROC =    1)
(PID.TID 0000.0001)       NEIGHBOUR    4 = TILE   79 Comm = PUT ( PROC =    1)
(PID.TID 0000.0001)  TILE:   81
(PID.TID 0000.0001)       NEIGHBOUR    1 = TILE   85 Comm = PUT ( PROC =    1)
(PID.TID 0000.0001)       NEIGHBOUR    2 = TILE   77 Comm = PUT ( PROC =    1)
(PID.TID 0000.0001)       NEIGHBOUR    3 = TILE   82 Comm = PUT ( PROC =    1)
(PID.TID 0000.0001)       NEIGHBOUR    4 = TILE   30 Comm = PUT ( PROC =    1)
(PID.TID 0000.0001)  TILE:   82
(PID.TID 0000.0001)       NEIGHBOUR    1 = TILE   86 Comm = PUT ( PROC =    1)
(PID.TID 0000.0001)       NEIGHBOUR    2 = TILE   78 Comm = PUT ( PROC =    1)
(PID.TID 0000.0001)       NEIGHBOUR    3 = TILE   83 Comm = PUT ( PROC =    1)
(PID.TID 0000.0001)       NEIGHBOUR    4 = TILE   81 Comm = PUT ( PROC =    1)
(PID.TID 0000.0001)  TILE:   83
(PID.TID 0000.0001)       NEIGHBOUR    1 = TILE   87 Comm = PUT ( PROC =    1)
(PID.TID 0000.0001)       NEIGHBOUR    2 = TILE   79 Comm = PUT ( PROC =    1)
(PID.TID 0000.0001)       NEIGHBOUR    3 = TILE   84 Comm = PUT ( PROC =    1)
(PID.TID 0000.0001)       NEIGHBOUR    4 = TILE   82 Comm = PUT ( PROC =    1)
(PID.TID 0000.0001)  TILE:   84
(PID.TID 0000.0001)       NEIGHBOUR    1 = TILE   88 Comm = PUT ( PROC =    1)
(PID.TID 0000.0001)       NEIGHBOUR    2 = TILE   80 Comm = PUT ( PROC =    1)
(PID.TID 0000.0001)       NEIGHBOUR    3 = TILE  113 Comm = PUT ( PROC =    1)
(PID.TID 0000.0001)       NEIGHBOUR    4 = TILE   83 Comm = PUT ( PROC =    1)
(PID.TID 0000.0001)  TILE:   85
(PID.TID 0000.0001)       NEIGHBOUR    1 = TILE   89 Comm = PUT ( PROC =    1)
(PID.TID 0000.0001)       NEIGHBOUR    2 = TILE   81 Comm = PUT ( PROC =    1)
(PID.TID 0000.0001)       NEIGHBOUR    3 = TILE   86 Comm = PUT ( PROC =    1)
(PID.TID 0000.0001)       NEIGHBOUR    4 = TILE   30 Comm = PUT ( PROC =    1)
(PID.TID 0000.0001)  TILE:   86
(PID.TID 0000.0001)       NEIGHBOUR    1 = TILE   90 Comm = PUT ( PROC =    1)
(PID.TID 0000.0001)       NEIGHBOUR    2 = TILE   82 Comm = PUT ( PROC =    1)
(PID.TID 0000.0001)       NEIGHBOUR    3 = TILE   87 Comm = PUT ( PROC =    1)
(PID.TID 0000.0001)       NEIGHBOUR    4 = TILE   85 Comm = PUT ( PROC =    1)
(PID.TID 0000.0001)  TILE:   87
(PID.TID 0000.0001)       NEIGHBOUR    1 = TILE   91 Comm = PUT ( PROC =    1)
(PID.TID 0000.0001)       NEIGHBOUR    2 = TILE   83 Comm = PUT ( PROC =    1)
(PID.TID 0000.0001)       NEIGHBOUR    3 = TILE   88 Comm = PUT ( PROC =    1)
(PID.TID 0000.0001)       NEIGHBOUR    4 = TILE   86 Comm = PUT ( PROC =    1)
(PID.TID 0000.0001)  TILE:   88
(PID.TID 0000.0001)       NEIGHBOUR    1 = TILE   92 Comm = PUT ( PROC =    1)
(PID.TID 0000.0001)       NEIGHBOUR    2 = TILE   84 Comm = PUT ( PROC =    1)
(PID.TID 0000.0001)       NEIGHBOUR    3 = TILE  117 Comm = PUT ( PROC =    1)
(PID.TID 0000.0001)       NEIGHBOUR    4 = TILE   87 Comm = PUT ( PROC =    1)
(PID.TID 0000.0001)  TILE:   89
(PID.TID 0000.0001)       NEIGHBOUR    1 = TILE   93 Comm = PUT ( PROC =    1)
(PID.TID 0000.0001)       NEIGHBOUR    2 = TILE   85 Comm = PUT ( PROC =    1)
(PID.TID 0000.0001)       NEIGHBOUR    3 = TILE   90 Comm = PUT ( PROC =    1)
(PID.TID 0000.0001)       NEIGHBOUR    4 = TILE   29 Comm = PUT ( PROC =    1)
(PID.TID 0000.0001)  TILE:   90
(PID.TID 0000.0001)       NEIGHBOUR    1 = TILE   94 Comm = PUT ( PROC =    1)
(PID.TID 0000.0001)       NEIGHBOUR    2 = TILE   86 Comm = PUT ( PROC =    1)
(PID.TID 0000.0001)       NEIGHBOUR    3 = TILE   91 Comm = PUT ( PROC =    1)
(PID.TID 0000.0001)       NEIGHBOUR    4 = TILE   89 Comm = PUT ( PROC =    1)
(PID.TID 0000.0001)  TILE:   91
(PID.TID 0000.0001)       NEIGHBOUR    1 = TILE   95 Comm = PUT ( PROC =    1)
(PID.TID 0000.0001)       NEIGHBOUR    2 = TILE   87 Comm = PUT ( PROC =    1)
(PID.TID 0000.0001)       NEIGHBOUR    3 = TILE   92 Comm = PUT ( PROC =    1)
(PID.TID 0000.0001)       NEIGHBOUR    4 = TILE   90 Comm = PUT ( PROC =    1)
(PID.TID 0000.0001)  TILE:   92
(PID.TID 0000.0001)       NEIGHBOUR    1 = TILE   96 Comm = PUT ( PROC =    1)
(PID.TID 0000.0001)       NEIGHBOUR    2 = TILE   88 Comm = PUT ( PROC =    1)
(PID.TID 0000.0001)       NEIGHBOUR    3 = TILE  121 Comm = PUT ( PROC =    1)
(PID.TID 0000.0001)       NEIGHBOUR    4 = TILE   91 Comm = PUT ( PROC =    1)
(PID.TID 0000.0001)  TILE:   93
(PID.TID 0000.0001)       NEIGHBOUR    1 = TILE  153 Comm = PUT ( PROC =    1)
(PID.TID 0000.0001)       NEIGHBOUR    2 = TILE  157 Comm = PUT ( PROC =    1)
(PID.TID 0000.0001)       NEIGHBOUR    3 = TILE   89 Comm = PUT ( PROC =    1)
(PID.TID 0000.0001)       NEIGHBOUR    4 = TILE   94 Comm = PUT ( PROC =    1)
(PID.TID 0000.0001)       NEIGHBOUR    5 = TILE   29 Comm = PUT ( PROC =    1)
(PID.TID 0000.0001)  TILE:   94
(PID.TID 0000.0001)       NEIGHBOUR    1 = TILE  145 Comm = PUT ( PROC =    1)
(PID.TID 0000.0001)       NEIGHBOUR    2 = TILE  149 Comm = PUT ( PROC =    1)
(PID.TID 0000.0001)       NEIGHBOUR    3 = TILE   90 Comm = PUT ( PROC =    1)
(PID.TID 0000.0001)       NEIGHBOUR    4 = TILE   95 Comm = PUT ( PROC =    1)
(PID.TID 0000.0001)       NEIGHBOUR    5 = TILE   93 Comm = PUT ( PROC =    1)
(PID.TID 0000.0001)  TILE:   95
(PID.TID 0000.0001)       NEIGHBOUR    1 = TILE  137 Comm = PUT ( PROC =    1)
(PID.TID 0000.0001)       NEIGHBOUR    2 = TILE  141 Comm = PUT ( PROC =    1)
(PID.TID 0000.0001)       NEIGHBOUR    3 = TILE   91 Comm = PUT ( PROC =    1)
(PID.TID 0000.0001)       NEIGHBOUR    4 = TILE   96 Comm = PUT ( PROC =    1)
(PID.TID 0000.0001)       NEIGHBOUR    5 = TILE   94 Comm = PUT ( PROC =    1)
(PID.TID 0000.0001)  TILE:   96
(PID.TID 0000.0001)       NEIGHBOUR    1 = TILE  129 Comm = PUT ( PROC =    1)
(PID.TID 0000.0001)       NEIGHBOUR    2 = TILE  133 Comm = PUT ( PROC =    1)
(PID.TID 0000.0001)       NEIGHBOUR    3 = TILE   92 Comm = PUT ( PROC =    1)
(PID.TID 0000.0001)       NEIGHBOUR    4 = TILE  125 Comm = PUT ( PROC =    1)
(PID.TID 0000.0001)       NEIGHBOUR    5 = TILE   95 Comm = PUT ( PROC =    1)
(PID.TID 0000.0001)  TILE:   97
(PID.TID 0000.0001)       NEIGHBOUR    1 = TILE  101 Comm = PUT ( PROC =    1)
(PID.TID 0000.0001)       NEIGHBOUR    2 = TILE   60 Comm = PUT ( PROC =    1)
(PID.TID 0000.0001)       NEIGHBOUR    3 = TILE   64 Comm = PUT ( PROC =    1)
(PID.TID 0000.0001)       NEIGHBOUR    4 = TILE   98 Comm = PUT ( PROC =    1)
(PID.TID 0000.0001)       NEIGHBOUR    5 = TILE   68 Comm = PUT ( PROC =    1)
(PID.TID 0000.0001)  TILE:   98
(PID.TID 0000.0001)       NEIGHBOUR    1 = TILE  102 Comm = PUT ( PROC =    1)
(PID.TID 0000.0001)       NEIGHBOUR    2 = TILE   52 Comm = PUT ( PROC =    1)
(PID.TID 0000.0001)       NEIGHBOUR    3 = TILE   56 Comm = PUT ( PROC =    1)
(PID.TID 0000.0001)       NEIGHBOUR    4 = TILE   99 Comm = PUT ( PROC =    1)
(PID.TID 0000.0001)       NEIGHBOUR    5 = TILE   97 Comm = PUT ( PROC =    1)
(PID.TID 0000.0001)  TILE:   99
(PID.TID 0000.0001)       NEIGHBOUR    1 = TILE  103 Comm = PUT ( PROC =    1)
(PID.TID 0000.0001)       NEIGHBOUR    2 = TILE   44 Comm = PUT ( PROC =    1)
(PID.TID 0000.0001)       NEIGHBOUR    3 = TILE   48 Comm = PUT ( PROC =    1)
(PID.TID 0000.0001)       NEIGHBOUR    4 = TILE  100 Comm = PUT ( PROC =    1)
(PID.TID 0000.0001)       NEIGHBOUR    5 = TILE   98 Comm = PUT ( PROC =    1)
(PID.TID 0000.0001)  TILE:  100
(PID.TID 0000.0001)       NEIGHBOUR    1 = TILE  104 Comm = PUT ( PROC =    1)
(PID.TID 0000.0001)       NEIGHBOUR    2 = TILE   36 Comm = PUT ( PROC =    1)
(PID.TID 0000.0001)       NEIGHBOUR    3 = TILE   40 Comm = PUT ( PROC =    1)
(PID.TID 0000.0001)       NEIGHBOUR    4 = TILE  164 Comm = PUT ( PROC =    1)
(PID.TID 0000.0001)       NEIGHBOUR    5 = TILE   99 Comm = PUT ( PROC =    1)
(PID.TID 0000.0001)  TILE:  101
(PID.TID 0000.0001)       NEIGHBOUR    1 = TILE  105 Comm = PUT ( PROC =    1)
(PID.TID 0000.0001)       NEIGHBOUR    2 = TILE   97 Comm = PUT ( PROC =    1)
(PID.TID 0000.0001)       NEIGHBOUR    3 = TILE  102 Comm = PUT ( PROC =    1)
(PID.TID 0000.0001)       NEIGHBOUR    4 = TILE   72 Comm = PUT ( PROC =    1)
(PID.TID 0000.0001)  TILE:  102
(PID.TID 0000.0001)       NEIGHBOUR    1 = TILE  106 Comm = PUT ( PROC =    1)
(PID.TID 0000.0001)       NEIGHBOUR    2 = TILE   98 Comm = PUT ( PROC =    1)
(PID.TID 0000.0001)       NEIGHBOUR    3 = TILE  103 Comm = PUT ( PROC =    1)
(PID.TID 0000.0001)       NEIGHBOUR    4 = TILE  101 Comm = PUT ( PROC =    1)
(PID.TID 0000.0001)  TILE:  103
(PID.TID 0000.0001)       NEIGHBOUR    1 = TILE  107 Comm = PUT ( PROC =    1)
(PID.TID 0000.0001)       NEIGHBOUR    2 = TILE   99 Comm = PUT ( PROC =    1)
(PID.TID 0000.0001)       NEIGHBOUR    3 = TILE  104 Comm = PUT ( PROC =    1)
(PID.TID 0000.0001)       NEIGHBOUR    4 = TILE  102 Comm = PUT ( PROC =    1)
(PID.TID 0000.0001)  TILE:  104
(PID.TID 0000.0001)       NEIGHBOUR    1 = TILE  108 Comm = PUT ( PROC =    1)
(PID.TID 0000.0001)       NEIGHBOUR    2 = TILE  100 Comm = PUT ( PROC =    1)
(PID.TID 0000.0001)       NEIGHBOUR    3 = TILE  164 Comm = PUT ( PROC =    1)
(PID.TID 0000.0001)       NEIGHBOUR    4 = TILE  103 Comm = PUT ( PROC =    1)
(PID.TID 0000.0001)  TILE:  105
(PID.TID 0000.0001)       NEIGHBOUR    1 = TILE  109 Comm = PUT ( PROC =    1)
(PID.TID 0000.0001)       NEIGHBOUR    2 = TILE  101 Comm = PUT ( PROC =    1)
(PID.TID 0000.0001)       NEIGHBOUR    3 = TILE  106 Comm = PUT ( PROC =    1)
(PID.TID 0000.0001)       NEIGHBOUR    4 = TILE   76 Comm = PUT ( PROC =    1)
(PID.TID 0000.0001)  TILE:  106
(PID.TID 0000.0001)       NEIGHBOUR    1 = TILE  110 Comm = PUT ( PROC =    1)
(PID.TID 0000.0001)       NEIGHBOUR    2 = TILE  102 Comm = PUT ( PROC =    1)
(PID.TID 0000.0001)       NEIGHBOUR    3 = TILE  107 Comm = PUT ( PROC =    1)
(PID.TID 0000.0001)       NEIGHBOUR    4 = TILE  105 Comm = PUT ( PROC =    1)
(PID.TID 0000.0001)  TILE:  107
(PID.TID 0000.0001)       NEIGHBOUR    1 = TILE  111 Comm = PUT ( PROC =    1)
(PID.TID 0000.0001)       NEIGHBOUR    2 = TILE  103 Comm = PUT ( PROC =    1)
(PID.TID 0000.0001)       NEIGHBOUR    3 = TILE  108 Comm = PUT ( PROC =    1)
(PID.TID 0000.0001)       NEIGHBOUR    4 = TILE  106 Comm = PUT ( PROC =    1)
(PID.TID 0000.0001)  TILE:  108
(PID.TID 0000.0001)       NEIGHBOUR    1 = TILE  112 Comm = PUT ( PROC =    1)
(PID.TID 0000.0001)       NEIGHBOUR    2 = TILE  104 Comm = PUT ( PROC =    1)
(PID.TID 0000.0001)       NEIGHBOUR    3 = TILE  163 Comm = PUT ( PROC =    1)
(PID.TID 0000.0001)       NEIGHBOUR    4 = TILE  107 Comm = PUT ( PROC =    1)
(PID.TID 0000.0001)  TILE:  109
(PID.TID 0000.0001)       NEIGHBOUR    1 = TILE  113 Comm = PUT ( PROC =    1)
(PID.TID 0000.0001)       NEIGHBOUR    2 = TILE  105 Comm = PUT ( PROC =    1)
(PID.TID 0000.0001)       NEIGHBOUR    3 = TILE  110 Comm = PUT ( PROC =    1)
(PID.TID 0000.0001)       NEIGHBOUR    4 = TILE   80 Comm = PUT ( PROC =    1)
(PID.TID 0000.0001)  TILE:  110
(PID.TID 0000.0001)       NEIGHBOUR    1 = TILE  114 Comm = PUT ( PROC =    1)
(PID.TID 0000.0001)       NEIGHBOUR    2 = TILE  106 Comm = PUT ( PROC =    1)
(PID.TID 0000.0001)       NEIGHBOUR    3 = TILE  111 Comm = PUT ( PROC =    1)
(PID.TID 0000.0001)       NEIGHBOUR    4 = TILE  109 Comm = PUT ( PROC =    1)
(PID.TID 0000.0001)  TILE:  111
(PID.TID 0000.0001)       NEIGHBOUR    1 = TILE  115 Comm = PUT ( PROC =    1)
(PID.TID 0000.0001)       NEIGHBOUR    2 = TILE  107 Comm = PUT ( PROC =    1)
(PID.TID 0000.0001)       NEIGHBOUR    3 = TILE  112 Comm = PUT ( PROC =    1)
(PID.TID 0000.0001)       NEIGHBOUR    4 = TILE  110 Comm = PUT ( PROC =    1)
(PID.TID 0000.0001)  TILE:  112
(PID.TID 0000.0001)       NEIGHBOUR    1 = TILE  116 Comm = PUT ( PROC =    1)
(PID.TID 0000.0001)       NEIGHBOUR    2 = TILE  108 Comm = PUT ( PROC =    1)
(PID.TID 0000.0001)       NEIGHBOUR    3 = TILE  163 Comm = PUT ( PROC =    1)
(PID.TID 0000.0001)       NEIGHBOUR    4 = TILE  111 Comm = PUT ( PROC =    1)
(PID.TID 0000.0001)  TILE:  113
(PID.TID 0000.0001)       NEIGHBOUR    1 = TILE  117 Comm = PUT ( PROC =    1)
(PID.TID 0000.0001)       NEIGHBOUR    2 = TILE  109 Comm = PUT ( PROC =    1)
(PID.TID 0000.0001)       NEIGHBOUR    3 = TILE  114 Comm = PUT ( PROC =    1)
(PID.TID 0000.0001)       NEIGHBOUR    4 = TILE   84 Comm = PUT ( PROC =    1)
(PID.TID 0000.0001)  TILE:  114
(PID.TID 0000.0001)       NEIGHBOUR    1 = TILE  118 Comm = PUT ( PROC =    1)
(PID.TID 0000.0001)       NEIGHBOUR    2 = TILE  110 Comm = PUT ( PROC =    1)
(PID.TID 0000.0001)       NEIGHBOUR    3 = TILE  115 Comm = PUT ( PROC =    1)
(PID.TID 0000.0001)       NEIGHBOUR    4 = TILE  113 Comm = PUT ( PROC =    1)
(PID.TID 0000.0001)  TILE:  115
(PID.TID 0000.0001)       NEIGHBOUR    1 = TILE  119 Comm = PUT ( PROC =    1)
(PID.TID 0000.0001)       NEIGHBOUR    2 = TILE  111 Comm = PUT ( PROC =    1)
(PID.TID 0000.0001)       NEIGHBOUR    3 = TILE  116 Comm = PUT ( PROC =    1)
(PID.TID 0000.0001)       NEIGHBOUR    4 = TILE  114 Comm = PUT ( PROC =    1)
(PID.TID 0000.0001)  TILE:  116
(PID.TID 0000.0001)       NEIGHBOUR    1 = TILE  120 Comm = PUT ( PROC =    1)
(PID.TID 0000.0001)       NEIGHBOUR    2 = TILE  112 Comm = PUT ( PROC =    1)
(PID.TID 0000.0001)       NEIGHBOUR    3 = TILE  162 Comm = PUT ( PROC =    1)
(PID.TID 0000.0001)       NEIGHBOUR    4 = TILE  115 Comm = PUT ( PROC =    1)
(PID.TID 0000.0001)  TILE:  117
(PID.TID 0000.0001)       NEIGHBOUR    1 = TILE  121 Comm = PUT ( PROC =    1)
(PID.TID 0000.0001)       NEIGHBOUR    2 = TILE  113 Comm = PUT ( PROC =    1)
(PID.TID 0000.0001)       NEIGHBOUR    3 = TILE  118 Comm = PUT ( PROC =    1)
(PID.TID 0000.0001)       NEIGHBOUR    4 = TILE   88 Comm = PUT ( PROC =    1)
(PID.TID 0000.0001)  TILE:  118
(PID.TID 0000.0001)       NEIGHBOUR    1 = TILE  122 Comm = PUT ( PROC =    1)
(PID.TID 0000.0001)       NEIGHBOUR    2 = TILE  114 Comm = PUT ( PROC =    1)
(PID.TID 0000.0001)       NEIGHBOUR    3 = TILE  119 Comm = PUT ( PROC =    1)
(PID.TID 0000.0001)       NEIGHBOUR    4 = TILE  117 Comm = PUT ( PROC =    1)
(PID.TID 0000.0001)  TILE:  119
(PID.TID 0000.0001)       NEIGHBOUR    1 = TILE  123 Comm = PUT ( PROC =    1)
(PID.TID 0000.0001)       NEIGHBOUR    2 = TILE  115 Comm = PUT ( PROC =    1)
(PID.TID 0000.0001)       NEIGHBOUR    3 = TILE  120 Comm = PUT ( PROC =    1)
(PID.TID 0000.0001)       NEIGHBOUR    4 = TILE  118 Comm = PUT ( PROC =    1)
(PID.TID 0000.0001)  TILE:  120
(PID.TID 0000.0001)       NEIGHBOUR    1 = TILE  124 Comm = PUT ( PROC =    1)
(PID.TID 0000.0001)       NEIGHBOUR    2 = TILE  116 Comm = PUT ( PROC =    1)
(PID.TID 0000.0001)       NEIGHBOUR    3 = TILE  162 Comm = PUT ( PROC =    1)
(PID.TID 0000.0001)       NEIGHBOUR    4 = TILE  119 Comm = PUT ( PROC =    1)
(PID.TID 0000.0001)  TILE:  121
(PID.TID 0000.0001)       NEIGHBOUR    1 = TILE  125 Comm = PUT ( PROC =    1)
(PID.TID 0000.0001)       NEIGHBOUR    2 = TILE  117 Comm = PUT ( PROC =    1)
(PID.TID 0000.0001)       NEIGHBOUR    3 = TILE  122 Comm = PUT ( PROC =    1)
(PID.TID 0000.0001)       NEIGHBOUR    4 = TILE   92 Comm = PUT ( PROC =    1)
(PID.TID 0000.0001)  TILE:  122
(PID.TID 0000.0001)       NEIGHBOUR    1 = TILE  126 Comm = PUT ( PROC =    1)
(PID.TID 0000.0001)       NEIGHBOUR    2 = TILE  118 Comm = PUT ( PROC =    1)
(PID.TID 0000.0001)       NEIGHBOUR    3 = TILE  123 Comm = PUT ( PROC =    1)
(PID.TID 0000.0001)       NEIGHBOUR    4 = TILE  121 Comm = PUT ( PROC =    1)
(PID.TID 0000.0001)  TILE:  123
(PID.TID 0000.0001)       NEIGHBOUR    1 = TILE  127 Comm = PUT ( PROC =    1)
(PID.TID 0000.0001)       NEIGHBOUR    2 = TILE  119 Comm = PUT ( PROC =    1)
(PID.TID 0000.0001)       NEIGHBOUR    3 = TILE  124 Comm = PUT ( PROC =    1)
(PID.TID 0000.0001)       NEIGHBOUR    4 = TILE  122 Comm = PUT ( PROC =    1)
(PID.TID 0000.0001)  TILE:  124
(PID.TID 0000.0001)       NEIGHBOUR    1 = TILE  128 Comm = PUT ( PROC =    1)
(PID.TID 0000.0001)       NEIGHBOUR    2 = TILE  120 Comm = PUT ( PROC =    1)
(PID.TID 0000.0001)       NEIGHBOUR    3 = TILE  161 Comm = PUT ( PROC =    1)
(PID.TID 0000.0001)       NEIGHBOUR    4 = TILE  123 Comm = PUT ( PROC =    1)
(PID.TID 0000.0001)  TILE:  125
(PID.TID 0000.0001)       NEIGHBOUR    1 = TILE  129 Comm = PUT ( PROC =    1)
(PID.TID 0000.0001)       NEIGHBOUR    2 = TILE  121 Comm = PUT ( PROC =    1)
(PID.TID 0000.0001)       NEIGHBOUR    3 = TILE  126 Comm = PUT ( PROC =    1)
(PID.TID 0000.0001)       NEIGHBOUR    4 = TILE   96 Comm = PUT ( PROC =    1)
(PID.TID 0000.0001)  TILE:  126
(PID.TID 0000.0001)       NEIGHBOUR    1 = TILE  130 Comm = PUT ( PROC =    1)
(PID.TID 0000.0001)       NEIGHBOUR    2 = TILE  122 Comm = PUT ( PROC =    1)
(PID.TID 0000.0001)       NEIGHBOUR    3 = TILE  127 Comm = PUT ( PROC =    1)
(PID.TID 0000.0001)       NEIGHBOUR    4 = TILE  125 Comm = PUT ( PROC =    1)
(PID.TID 0000.0001)  TILE:  127
(PID.TID 0000.0001)       NEIGHBOUR    1 = TILE  131 Comm = PUT ( PROC =    1)
(PID.TID 0000.0001)       NEIGHBOUR    2 = TILE  123 Comm = PUT ( PROC =    1)
(PID.TID 0000.0001)       NEIGHBOUR    3 = TILE  128 Comm = PUT ( PROC =    1)
(PID.TID 0000.0001)       NEIGHBOUR    4 = TILE  126 Comm = PUT ( PROC =    1)
(PID.TID 0000.0001)  TILE:  128
(PID.TID 0000.0001)       NEIGHBOUR    1 = TILE  132 Comm = PUT ( PROC =    1)
(PID.TID 0000.0001)       NEIGHBOUR    2 = TILE  124 Comm = PUT ( PROC =    1)
(PID.TID 0000.0001)       NEIGHBOUR    3 = TILE  161 Comm = PUT ( PROC =    1)
(PID.TID 0000.0001)       NEIGHBOUR    4 = TILE  127 Comm = PUT ( PROC =    1)
(PID.TID 0000.0001)  TILE:  129
(PID.TID 0000.0001)       NEIGHBOUR    1 = TILE  133 Comm = PUT ( PROC =    1)
(PID.TID 0000.0001)       NEIGHBOUR    2 = TILE  125 Comm = PUT ( PROC =    1)
(PID.TID 0000.0001)       NEIGHBOUR    3 = TILE  130 Comm = PUT ( PROC =    1)
(PID.TID 0000.0001)       NEIGHBOUR    4 = TILE   96 Comm = PUT ( PROC =    1)
(PID.TID 0000.0001)  TILE:  130
(PID.TID 0000.0001)       NEIGHBOUR    1 = TILE  134 Comm = PUT ( PROC =    1)
(PID.TID 0000.0001)       NEIGHBOUR    2 = TILE  126 Comm = PUT ( PROC =    1)
(PID.TID 0000.0001)       NEIGHBOUR    3 = TILE  131 Comm = PUT ( PROC =    1)
(PID.TID 0000.0001)       NEIGHBOUR    4 = TILE  129 Comm = PUT ( PROC =    1)
(PID.TID 0000.0001)  TILE:  131
(PID.TID 0000.0001)       NEIGHBOUR    1 = TILE  135 Comm = PUT ( PROC =    1)
(PID.TID 0000.0001)       NEIGHBOUR    2 = TILE  127 Comm = PUT ( PROC =    1)
(PID.TID 0000.0001)       NEIGHBOUR    3 = TILE  132 Comm = PUT ( PROC =    1)
(PID.TID 0000.0001)       NEIGHBOUR    4 = TILE  130 Comm = PUT ( PROC =    1)
(PID.TID 0000.0001)  TILE:  132
(PID.TID 0000.0001)       NEIGHBOUR    1 = TILE  136 Comm = PUT ( PROC =    1)
(PID.TID 0000.0001)       NEIGHBOUR    2 = TILE  128 Comm = PUT ( PROC =    1)
(PID.TID 0000.0001)       NEIGHBOUR    3 = TILE  161 Comm = PUT ( PROC =    1)
(PID.TID 0000.0001)       NEIGHBOUR    4 = TILE  131 Comm = PUT ( PROC =    1)
(PID.TID 0000.0001)  TILE:  133
(PID.TID 0000.0001)       NEIGHBOUR    1 = TILE  137 Comm = PUT ( PROC =    1)
(PID.TID 0000.0001)       NEIGHBOUR    2 = TILE  129 Comm = PUT ( PROC =    1)
(PID.TID 0000.0001)       NEIGHBOUR    3 = TILE  134 Comm = PUT ( PROC =    1)
(PID.TID 0000.0001)       NEIGHBOUR    4 = TILE   96 Comm = PUT ( PROC =    1)
(PID.TID 0000.0001)  TILE:  134
(PID.TID 0000.0001)       NEIGHBOUR    1 = TILE  138 Comm = PUT ( PROC =    1)
(PID.TID 0000.0001)       NEIGHBOUR    2 = TILE  130 Comm = PUT ( PROC =    1)
(PID.TID 0000.0001)       NEIGHBOUR    3 = TILE  135 Comm = PUT ( PROC =    1)
(PID.TID 0000.0001)       NEIGHBOUR    4 = TILE  133 Comm = PUT ( PROC =    1)
(PID.TID 0000.0001)  TILE:  135
(PID.TID 0000.0001)       NEIGHBOUR    1 = TILE  139 Comm = PUT ( PROC =    1)
(PID.TID 0000.0001)       NEIGHBOUR    2 = TILE  131 Comm = PUT ( PROC =    1)
(PID.TID 0000.0001)       NEIGHBOUR    3 = TILE  136 Comm = PUT ( PROC =    1)
(PID.TID 0000.0001)       NEIGHBOUR    4 = TILE  134 Comm = PUT ( PROC =    1)
(PID.TID 0000.0001)  TILE:  136
(PID.TID 0000.0001)       NEIGHBOUR    1 = TILE  140 Comm = PUT ( PROC =    1)
(PID.TID 0000.0001)       NEIGHBOUR    2 = TILE  132 Comm = PUT ( PROC =    1)
(PID.TID 0000.0001)       NEIGHBOUR    3 = TILE  165 Comm = PUT ( PROC =    1)
(PID.TID 0000.0001)       NEIGHBOUR    4 = TILE  135 Comm = PUT ( PROC =    1)
(PID.TID 0000.0001)  TILE:  137
(PID.TID 0000.0001)       NEIGHBOUR    1 = TILE  141 Comm = PUT ( PROC =    1)
(PID.TID 0000.0001)       NEIGHBOUR    2 = TILE  133 Comm = PUT ( PROC =    1)
(PID.TID 0000.0001)       NEIGHBOUR    3 = TILE  138 Comm = PUT ( PROC =    1)
(PID.TID 0000.0001)       NEIGHBOUR    4 = TILE   95 Comm = PUT ( PROC =    1)
(PID.TID 0000.0001)  TILE:  138
(PID.TID 0000.0001)       NEIGHBOUR    1 = TILE  142 Comm = PUT ( PROC =    1)
(PID.TID 0000.0001)       NEIGHBOUR    2 = TILE  134 Comm = PUT ( PROC =    1)
(PID.TID 0000.0001)       NEIGHBOUR    3 = TILE  139 Comm = PUT ( PROC =    1)
(PID.TID 0000.0001)       NEIGHBOUR    4 = TILE  137 Comm = PUT ( PROC =    1)
(PID.TID 0000.0001)  TILE:  139
(PID.TID 0000.0001)       NEIGHBOUR    1 = TILE  143 Comm = PUT ( PROC =    1)
(PID.TID 0000.0001)       NEIGHBOUR    2 = TILE  135 Comm = PUT ( PROC =    1)
(PID.TID 0000.0001)       NEIGHBOUR    3 = TILE  140 Comm = PUT ( PROC =    1)
(PID.TID 0000.0001)       NEIGHBOUR    4 = TILE  138 Comm = PUT ( PROC =    1)
(PID.TID 0000.0001)  TILE:  140
(PID.TID 0000.0001)       NEIGHBOUR    1 = TILE  144 Comm = PUT ( PROC =    1)
(PID.TID 0000.0001)       NEIGHBOUR    2 = TILE  136 Comm = PUT ( PROC =    1)
(PID.TID 0000.0001)       NEIGHBOUR    3 = TILE  169 Comm = PUT ( PROC =    1)
(PID.TID 0000.0001)       NEIGHBOUR    4 = TILE  139 Comm = PUT ( PROC =    1)
(PID.TID 0000.0001)  TILE:  141
(PID.TID 0000.0001)       NEIGHBOUR    1 = TILE  145 Comm = PUT ( PROC =    1)
(PID.TID 0000.0001)       NEIGHBOUR    2 = TILE  137 Comm = PUT ( PROC =    1)
(PID.TID 0000.0001)       NEIGHBOUR    3 = TILE  142 Comm = PUT ( PROC =    1)
(PID.TID 0000.0001)       NEIGHBOUR    4 = TILE   95 Comm = PUT ( PROC =    1)
(PID.TID 0000.0001)  TILE:  142
(PID.TID 0000.0001)       NEIGHBOUR    1 = TILE  146 Comm = PUT ( PROC =    1)
(PID.TID 0000.0001)       NEIGHBOUR    2 = TILE  138 Comm = PUT ( PROC =    1)
(PID.TID 0000.0001)       NEIGHBOUR    3 = TILE  143 Comm = PUT ( PROC =    1)
(PID.TID 0000.0001)       NEIGHBOUR    4 = TILE  141 Comm = PUT ( PROC =    1)
(PID.TID 0000.0001)  TILE:  143
(PID.TID 0000.0001)       NEIGHBOUR    1 = TILE  147 Comm = PUT ( PROC =    1)
(PID.TID 0000.0001)       NEIGHBOUR    2 = TILE  139 Comm = PUT ( PROC =    1)
(PID.TID 0000.0001)       NEIGHBOUR    3 = TILE  144 Comm = PUT ( PROC =    1)
(PID.TID 0000.0001)       NEIGHBOUR    4 = TILE  142 Comm = PUT ( PROC =    1)
(PID.TID 0000.0001)  TILE:  144
(PID.TID 0000.0001)       NEIGHBOUR    1 = TILE  148 Comm = PUT ( PROC =    1)
(PID.TID 0000.0001)       NEIGHBOUR    2 = TILE  140 Comm = PUT ( PROC =    1)
(PID.TID 0000.0001)       NEIGHBOUR    3 = TILE  173 Comm = PUT ( PROC =    1)
(PID.TID 0000.0001)       NEIGHBOUR    4 = TILE  143 Comm = PUT ( PROC =    1)
(PID.TID 0000.0001)  TILE:  145
(PID.TID 0000.0001)       NEIGHBOUR    1 = TILE  149 Comm = PUT ( PROC =    1)
(PID.TID 0000.0001)       NEIGHBOUR    2 = TILE  141 Comm = PUT ( PROC =    1)
(PID.TID 0000.0001)       NEIGHBOUR    3 = TILE  146 Comm = PUT ( PROC =    1)
(PID.TID 0000.0001)       NEIGHBOUR    4 = TILE   94 Comm = PUT ( PROC =    1)
(PID.TID 0000.0001)  TILE:  146
(PID.TID 0000.0001)       NEIGHBOUR    1 = TILE  150 Comm = PUT ( PROC =    1)
(PID.TID 0000.0001)       NEIGHBOUR    2 = TILE  142 Comm = PUT ( PROC =    1)
(PID.TID 0000.0001)       NEIGHBOUR    3 = TILE  147 Comm = PUT ( PROC =    1)
(PID.TID 0000.0001)       NEIGHBOUR    4 = TILE  145 Comm = PUT ( PROC =    1)
(PID.TID 0000.0001)  TILE:  147
(PID.TID 0000.0001)       NEIGHBOUR    1 = TILE  151 Comm = PUT ( PROC =    1)
(PID.TID 0000.0001)       NEIGHBOUR    2 = TILE  143 Comm = PUT ( PROC =    1)
(PID.TID 0000.0001)       NEIGHBOUR    3 = TILE  148 Comm = PUT ( PROC =    1)
(PID.TID 0000.0001)       NEIGHBOUR    4 = TILE  146 Comm = PUT ( PROC =    1)
(PID.TID 0000.0001)  TILE:  148
(PID.TID 0000.0001)       NEIGHBOUR    1 = TILE  152 Comm = PUT ( PROC =    1)
(PID.TID 0000.0001)       NEIGHBOUR    2 = TILE  144 Comm = PUT ( PROC =    1)
(PID.TID 0000.0001)       NEIGHBOUR    3 = TILE  177 Comm = PUT ( PROC =    1)
(PID.TID 0000.0001)       NEIGHBOUR    4 = TILE  147 Comm = PUT ( PROC =    1)
(PID.TID 0000.0001)  TILE:  149
(PID.TID 0000.0001)       NEIGHBOUR    1 = TILE  153 Comm = PUT ( PROC =    1)
(PID.TID 0000.0001)       NEIGHBOUR    2 = TILE  145 Comm = PUT ( PROC =    1)
(PID.TID 0000.0001)       NEIGHBOUR    3 = TILE  150 Comm = PUT ( PROC =    1)
(PID.TID 0000.0001)       NEIGHBOUR    4 = TILE   94 Comm = PUT ( PROC =    1)
(PID.TID 0000.0001)  TILE:  150
(PID.TID 0000.0001)       NEIGHBOUR    1 = TILE  154 Comm = PUT ( PROC =    1)
(PID.TID 0000.0001)       NEIGHBOUR    2 = TILE  146 Comm = PUT ( PROC =    1)
(PID.TID 0000.0001)       NEIGHBOUR    3 = TILE  151 Comm = PUT ( PROC =    1)
(PID.TID 0000.0001)       NEIGHBOUR    4 = TILE  149 Comm = PUT ( PROC =    1)
(PID.TID 0000.0001)  TILE:  151
(PID.TID 0000.0001)       NEIGHBOUR    1 = TILE  155 Comm = PUT ( PROC =    1)
(PID.TID 0000.0001)       NEIGHBOUR    2 = TILE  147 Comm = PUT ( PROC =    1)
(PID.TID 0000.0001)       NEIGHBOUR    3 = TILE  152 Comm = PUT ( PROC =    1)
(PID.TID 0000.0001)       NEIGHBOUR    4 = TILE  150 Comm = PUT ( PROC =    1)
(PID.TID 0000.0001)  TILE:  152
(PID.TID 0000.0001)       NEIGHBOUR    1 = TILE  156 Comm = PUT ( PROC =    1)
(PID.TID 0000.0001)       NEIGHBOUR    2 = TILE  148 Comm = PUT ( PROC =    1)
(PID.TID 0000.0001)       NEIGHBOUR    3 = TILE  181 Comm = PUT ( PROC =    1)
(PID.TID 0000.0001)       NEIGHBOUR    4 = TILE  151 Comm = PUT ( PROC =    1)
(PID.TID 0000.0001)  TILE:  153
(PID.TID 0000.0001)       NEIGHBOUR    1 = TILE  157 Comm = PUT ( PROC =    1)
(PID.TID 0000.0001)       NEIGHBOUR    2 = TILE  149 Comm = PUT ( PROC =    1)
(PID.TID 0000.0001)       NEIGHBOUR    3 = TILE  154 Comm = PUT ( PROC =    1)
(PID.TID 0000.0001)       NEIGHBOUR    4 = TILE   93 Comm = PUT ( PROC =    1)
(PID.TID 0000.0001)  TILE:  154
(PID.TID 0000.0001)       NEIGHBOUR    1 = TILE  158 Comm = PUT ( PROC =    1)
(PID.TID 0000.0001)       NEIGHBOUR    2 = TILE  150 Comm = PUT ( PROC =    1)
(PID.TID 0000.0001)       NEIGHBOUR    3 = TILE  155 Comm = PUT ( PROC =    1)
(PID.TID 0000.0001)       NEIGHBOUR    4 = TILE  153 Comm = PUT ( PROC =    1)
(PID.TID 0000.0001)  TILE:  155
(PID.TID 0000.0001)       NEIGHBOUR    1 = TILE  159 Comm = PUT ( PROC =    1)
(PID.TID 0000.0001)       NEIGHBOUR    2 = TILE  151 Comm = PUT ( PROC =    1)
(PID.TID 0000.0001)       NEIGHBOUR    3 = TILE  156 Comm = PUT ( PROC =    1)
(PID.TID 0000.0001)       NEIGHBOUR    4 = TILE  154 Comm = PUT ( PROC =    1)
(PID.TID 0000.0001)  TILE:  156
(PID.TID 0000.0001)       NEIGHBOUR    1 = TILE  160 Comm = PUT ( PROC =    1)
(PID.TID 0000.0001)       NEIGHBOUR    2 = TILE  152 Comm = PUT ( PROC =    1)
(PID.TID 0000.0001)       NEIGHBOUR    3 = TILE  185 Comm = PUT ( PROC =    1)
(PID.TID 0000.0001)       NEIGHBOUR    4 = TILE  155 Comm = PUT ( PROC =    1)
(PID.TID 0000.0001)  TILE:  157
(PID.TID 0000.0001)       NEIGHBOUR    1 = TILE   25 Comm = PUT ( PROC =    1)
(PID.TID 0000.0001)       NEIGHBOUR    2 = TILE   29 Comm = PUT ( PROC =    1)
(PID.TID 0000.0001)       NEIGHBOUR    3 = TILE  153 Comm = PUT ( PROC =    1)
(PID.TID 0000.0001)       NEIGHBOUR    4 = TILE  158 Comm = PUT ( PROC =    1)
(PID.TID 0000.0001)       NEIGHBOUR    5 = TILE   93 Comm = PUT ( PROC =    1)
(PID.TID 0000.0001)  TILE:  158
(PID.TID 0000.0001)       NEIGHBOUR    1 = TILE   17 Comm = PUT ( PROC =    1)
(PID.TID 0000.0001)       NEIGHBOUR    2 = TILE   21 Comm = PUT ( PROC =    1)
(PID.TID 0000.0001)       NEIGHBOUR    3 = TILE  154 Comm = PUT ( PROC =    1)
(PID.TID 0000.0001)       NEIGHBOUR    4 = TILE  159 Comm = PUT ( PROC =    1)
(PID.TID 0000.0001)       NEIGHBOUR    5 = TILE  157 Comm = PUT ( PROC =    1)
(PID.TID 0000.0001)  TILE:  159
(PID.TID 0000.0001)       NEIGHBOUR    1 = TILE    9 Comm = PUT ( PROC =    1)
(PID.TID 0000.0001)       NEIGHBOUR    2 = TILE   13 Comm = PUT ( PROC =    1)
(PID.TID 0000.0001)       NEIGHBOUR    3 = TILE  155 Comm = PUT ( PROC =    1)
(PID.TID 0000.0001)       NEIGHBOUR    4 = TILE  160 Comm = PUT ( PROC =    1)
(PID.TID 0000.0001)       NEIGHBOUR    5 = TILE  158 Comm = PUT ( PROC =    1)
(PID.TID 0000.0001)  TILE:  160
(PID.TID 0000.0001)       NEIGHBOUR    1 = TILE    1 Comm = PUT ( PROC =    1)
(PID.TID 0000.0001)       NEIGHBOUR    2 = TILE    5 Comm = PUT ( PROC =    1)
(PID.TID 0000.0001)       NEIGHBOUR    3 = TILE  156 Comm = PUT ( PROC =    1)
(PID.TID 0000.0001)       NEIGHBOUR    4 = TILE  189 Comm = PUT ( PROC =    1)
(PID.TID 0000.0001)       NEIGHBOUR    5 = TILE  159 Comm = PUT ( PROC =    1)
(PID.TID 0000.0001)  TILE:  161
(PID.TID 0000.0001)       NEIGHBOUR    1 = TILE  165 Comm = PUT ( PROC =    1)
(PID.TID 0000.0001)       NEIGHBOUR    2 = TILE  124 Comm = PUT ( PROC =    1)
(PID.TID 0000.0001)       NEIGHBOUR    3 = TILE  128 Comm = PUT ( PROC =    1)
(PID.TID 0000.0001)       NEIGHBOUR    4 = TILE  162 Comm = PUT ( PROC =    1)
(PID.TID 0000.0001)       NEIGHBOUR    5 = TILE  132 Comm = PUT ( PROC =    1)
(PID.TID 0000.0001)  TILE:  162
(PID.TID 0000.0001)       NEIGHBOUR    1 = TILE  166 Comm = PUT ( PROC =    1)
(PID.TID 0000.0001)       NEIGHBOUR    2 = TILE  116 Comm = PUT ( PROC =    1)
(PID.TID 0000.0001)       NEIGHBOUR    3 = TILE  120 Comm = PUT ( PROC =    1)
(PID.TID 0000.0001)       NEIGHBOUR    4 = TILE  163 Comm = PUT ( PROC =    1)
(PID.TID 0000.0001)       NEIGHBOUR    5 = TILE  161 Comm = PUT ( PROC =    1)
(PID.TID 0000.0001)  TILE:  163
(PID.TID 0000.0001)       NEIGHBOUR    1 = TILE  167 Comm = PUT ( PROC =    1)
(PID.TID 0000.0001)       NEIGHBOUR    2 = TILE  108 Comm = PUT ( PROC =    1)
(PID.TID 0000.0001)       NEIGHBOUR    3 = TILE  112 Comm = PUT ( PROC =    1)
(PID.TID 0000.0001)       NEIGHBOUR    4 = TILE  164 Comm = PUT ( PROC =    1)
(PID.TID 0000.0001)       NEIGHBOUR    5 = TILE  162 Comm = PUT ( PROC =    1)
(PID.TID 0000.0001)  TILE:  164
(PID.TID 0000.0001)       NEIGHBOUR    1 = TILE  168 Comm = PUT ( PROC =    1)
(PID.TID 0000.0001)       NEIGHBOUR    2 = TILE  100 Comm = PUT ( PROC =    1)
(PID.TID 0000.0001)       NEIGHBOUR    3 = TILE  104 Comm = PUT ( PROC =    1)
(PID.TID 0000.0001)       NEIGHBOUR    4 = TILE   36 Comm = PUT ( PROC =    1)
(PID.TID 0000.0001)       NEIGHBOUR    5 = TILE  163 Comm = PUT ( PROC =    1)
(PID.TID 0000.0001)  TILE:  165
(PID.TID 0000.0001)       NEIGHBOUR    1 = TILE  169 Comm = PUT ( PROC =    1)
(PID.TID 0000.0001)       NEIGHBOUR    2 = TILE  161 Comm = PUT ( PROC =    1)
(PID.TID 0000.0001)       NEIGHBOUR    3 = TILE  166 Comm = PUT ( PROC =    1)
(PID.TID 0000.0001)       NEIGHBOUR    4 = TILE  136 Comm = PUT ( PROC =    1)
(PID.TID 0000.0001)  TILE:  166
(PID.TID 0000.0001)       NEIGHBOUR    1 = TILE  170 Comm = PUT ( PROC =    1)
(PID.TID 0000.0001)       NEIGHBOUR    2 = TILE  162 Comm = PUT ( PROC =    1)
(PID.TID 0000.0001)       NEIGHBOUR    3 = TILE  167 Comm = PUT ( PROC =    1)
(PID.TID 0000.0001)       NEIGHBOUR    4 = TILE  165 Comm = PUT ( PROC =    1)
(PID.TID 0000.0001)  TILE:  167
(PID.TID 0000.0001)       NEIGHBOUR    1 = TILE  171 Comm = PUT ( PROC =    1)
(PID.TID 0000.0001)       NEIGHBOUR    2 = TILE  163 Comm = PUT ( PROC =    1)
(PID.TID 0000.0001)       NEIGHBOUR    3 = TILE  168 Comm = PUT ( PROC =    1)
(PID.TID 0000.0001)       NEIGHBOUR    4 = TILE  166 Comm = PUT ( PROC =    1)
(PID.TID 0000.0001)  TILE:  168
(PID.TID 0000.0001)       NEIGHBOUR    1 = TILE  172 Comm = PUT ( PROC =    1)
(PID.TID 0000.0001)       NEIGHBOUR    2 = TILE  164 Comm = PUT ( PROC =    1)
(PID.TID 0000.0001)       NEIGHBOUR    3 = TILE   36 Comm = PUT ( PROC =    1)
(PID.TID 0000.0001)       NEIGHBOUR    4 = TILE  167 Comm = PUT ( PROC =    1)
(PID.TID 0000.0001)  TILE:  169
(PID.TID 0000.0001)       NEIGHBOUR    1 = TILE  173 Comm = PUT ( PROC =    1)
(PID.TID 0000.0001)       NEIGHBOUR    2 = TILE  165 Comm = PUT ( PROC =    1)
(PID.TID 0000.0001)       NEIGHBOUR    3 = TILE  170 Comm = PUT ( PROC =    1)
(PID.TID 0000.0001)       NEIGHBOUR    4 = TILE  140 Comm = PUT ( PROC =    1)
(PID.TID 0000.0001)  TILE:  170
(PID.TID 0000.0001)       NEIGHBOUR    1 = TILE  174 Comm = PUT ( PROC =    1)
(PID.TID 0000.0001)       NEIGHBOUR    2 = TILE  166 Comm = PUT ( PROC =    1)
(PID.TID 0000.0001)       NEIGHBOUR    3 = TILE  171 Comm = PUT ( PROC =    1)
(PID.TID 0000.0001)       NEIGHBOUR    4 = TILE  169 Comm = PUT ( PROC =    1)
(PID.TID 0000.0001)  TILE:  171
(PID.TID 0000.0001)       NEIGHBOUR    1 = TILE  175 Comm = PUT ( PROC =    1)
(PID.TID 0000.0001)       NEIGHBOUR    2 = TILE  167 Comm = PUT ( PROC =    1)
(PID.TID 0000.0001)       NEIGHBOUR    3 = TILE  172 Comm = PUT ( PROC =    1)
(PID.TID 0000.0001)       NEIGHBOUR    4 = TILE  170 Comm = PUT ( PROC =    1)
(PID.TID 0000.0001)  TILE:  172
(PID.TID 0000.0001)       NEIGHBOUR    1 = TILE  176 Comm = PUT ( PROC =    1)
(PID.TID 0000.0001)       NEIGHBOUR    2 = TILE  168 Comm = PUT ( PROC =    1)
(PID.TID 0000.0001)       NEIGHBOUR    3 = TILE   35 Comm = PUT ( PROC =    1)
(PID.TID 0000.0001)       NEIGHBOUR    4 = TILE  171 Comm = PUT ( PROC =    1)
(PID.TID 0000.0001)  TILE:  173
(PID.TID 0000.0001)       NEIGHBOUR    1 = TILE  177 Comm = PUT ( PROC =    1)
(PID.TID 0000.0001)       NEIGHBOUR    2 = TILE  169 Comm = PUT ( PROC =    1)
(PID.TID 0000.0001)       NEIGHBOUR    3 = TILE  174 Comm = PUT ( PROC =    1)
(PID.TID 0000.0001)       NEIGHBOUR    4 = TILE  144 Comm = PUT ( PROC =    1)
(PID.TID 0000.0001)  TILE:  174
(PID.TID 0000.0001)       NEIGHBOUR    1 = TILE  178 Comm = PUT ( PROC =    1)
(PID.TID 0000.0001)       NEIGHBOUR    2 = TILE  170 Comm = PUT ( PROC =    1)
(PID.TID 0000.0001)       NEIGHBOUR    3 = TILE  175 Comm = PUT ( PROC =    1)
(PID.TID 0000.0001)       NEIGHBOUR    4 = TILE  173 Comm = PUT ( PROC =    1)
(PID.TID 0000.0001)  TILE:  175
(PID.TID 0000.0001)       NEIGHBOUR    1 = TILE  179 Comm = PUT ( PROC =    1)
(PID.TID 0000.0001)       NEIGHBOUR    2 = TILE  171 Comm = PUT ( PROC =    1)
(PID.TID 0000.0001)       NEIGHBOUR    3 = TILE  176 Comm = PUT ( PROC =    1)
(PID.TID 0000.0001)       NEIGHBOUR    4 = TILE  174 Comm = PUT ( PROC =    1)
(PID.TID 0000.0001)  TILE:  176
(PID.TID 0000.0001)       NEIGHBOUR    1 = TILE  180 Comm = PUT ( PROC =    1)
(PID.TID 0000.0001)       NEIGHBOUR    2 = TILE  172 Comm = PUT ( PROC =    1)
(PID.TID 0000.0001)       NEIGHBOUR    3 = TILE   35 Comm = PUT ( PROC =    1)
(PID.TID 0000.0001)       NEIGHBOUR    4 = TILE  175 Comm = PUT ( PROC =    1)
(PID.TID 0000.0001)  TILE:  177
(PID.TID 0000.0001)       NEIGHBOUR    1 = TILE  181 Comm = PUT ( PROC =    1)
(PID.TID 0000.0001)       NEIGHBOUR    2 = TILE  173 Comm = PUT ( PROC =    1)
(PID.TID 0000.0001)       NEIGHBOUR    3 = TILE  178 Comm = PUT ( PROC =    1)
(PID.TID 0000.0001)       NEIGHBOUR    4 = TILE  148 Comm = PUT ( PROC =    1)
(PID.TID 0000.0001)  TILE:  178
(PID.TID 0000.0001)       NEIGHBOUR    1 = TILE  182 Comm = PUT ( PROC =    1)
(PID.TID 0000.0001)       NEIGHBOUR    2 = TILE  174 Comm = PUT ( PROC =    1)
(PID.TID 0000.0001)       NEIGHBOUR    3 = TILE  179 Comm = PUT ( PROC =    1)
(PID.TID 0000.0001)       NEIGHBOUR    4 = TILE  177 Comm = PUT ( PROC =    1)
(PID.TID 0000.0001)  TILE:  179
(PID.TID 0000.0001)       NEIGHBOUR    1 = TILE  183 Comm = PUT ( PROC =    1)
(PID.TID 0000.0001)       NEIGHBOUR    2 = TILE  175 Comm = PUT ( PROC =    1)
(PID.TID 0000.0001)       NEIGHBOUR    3 = TILE  180 Comm = PUT ( PROC =    1)
(PID.TID 0000.0001)       NEIGHBOUR    4 = TILE  178 Comm = PUT ( PROC =    1)
(PID.TID 0000.0001)  TILE:  180
(PID.TID 0000.0001)       NEIGHBOUR    1 = TILE  184 Comm = PUT ( PROC =    1)
(PID.TID 0000.0001)       NEIGHBOUR    2 = TILE  176 Comm = PUT ( PROC =    1)
(PID.TID 0000.0001)       NEIGHBOUR    3 = TILE   34 Comm = PUT ( PROC =    1)
(PID.TID 0000.0001)       NEIGHBOUR    4 = TILE  179 Comm = PUT ( PROC =    1)
(PID.TID 0000.0001)  TILE:  181
(PID.TID 0000.0001)       NEIGHBOUR    1 = TILE  185 Comm = PUT ( PROC =    1)
(PID.TID 0000.0001)       NEIGHBOUR    2 = TILE  177 Comm = PUT ( PROC =    1)
(PID.TID 0000.0001)       NEIGHBOUR    3 = TILE  182 Comm = PUT ( PROC =    1)
(PID.TID 0000.0001)       NEIGHBOUR    4 = TILE  152 Comm = PUT ( PROC =    1)
(PID.TID 0000.0001)  TILE:  182
(PID.TID 0000.0001)       NEIGHBOUR    1 = TILE  186 Comm = PUT ( PROC =    1)
(PID.TID 0000.0001)       NEIGHBOUR    2 = TILE  178 Comm = PUT ( PROC =    1)
(PID.TID 0000.0001)       NEIGHBOUR    3 = TILE  183 Comm = PUT ( PROC =    1)
(PID.TID 0000.0001)       NEIGHBOUR    4 = TILE  181 Comm = PUT ( PROC =    1)
(PID.TID 0000.0001)  TILE:  183
(PID.TID 0000.0001)       NEIGHBOUR    1 = TILE  187 Comm = PUT ( PROC =    1)
(PID.TID 0000.0001)       NEIGHBOUR    2 = TILE  179 Comm = PUT ( PROC =    1)
(PID.TID 0000.0001)       NEIGHBOUR    3 = TILE  184 Comm = PUT ( PROC =    1)
(PID.TID 0000.0001)       NEIGHBOUR    4 = TILE  182 Comm = PUT ( PROC =    1)
(PID.TID 0000.0001)  TILE:  184
(PID.TID 0000.0001)       NEIGHBOUR    1 = TILE  188 Comm = PUT ( PROC =    1)
(PID.TID 0000.0001)       NEIGHBOUR    2 = TILE  180 Comm = PUT ( PROC =    1)
(PID.TID 0000.0001)       NEIGHBOUR    3 = TILE   34 Comm = PUT ( PROC =    1)
(PID.TID 0000.0001)       NEIGHBOUR    4 = TILE  183 Comm = PUT ( PROC =    1)
(PID.TID 0000.0001)  TILE:  185
(PID.TID 0000.0001)       NEIGHBOUR    1 = TILE  189 Comm = PUT ( PROC =    1)
(PID.TID 0000.0001)       NEIGHBOUR    2 = TILE  181 Comm = PUT ( PROC =    1)
(PID.TID 0000.0001)       NEIGHBOUR    3 = TILE  186 Comm = PUT ( PROC =    1)
(PID.TID 0000.0001)       NEIGHBOUR    4 = TILE  156 Comm = PUT ( PROC =    1)
(PID.TID 0000.0001)  TILE:  186
(PID.TID 0000.0001)       NEIGHBOUR    1 = TILE  190 Comm = PUT ( PROC =    1)
(PID.TID 0000.0001)       NEIGHBOUR    2 = TILE  182 Comm = PUT ( PROC =    1)
(PID.TID 0000.0001)       NEIGHBOUR    3 = TILE  187 Comm = PUT ( PROC =    1)
(PID.TID 0000.0001)       NEIGHBOUR    4 = TILE  185 Comm = PUT ( PROC =    1)
(PID.TID 0000.0001)  TILE:  187
(PID.TID 0000.0001)       NEIGHBOUR    1 = TILE  191 Comm = PUT ( PROC =    1)
(PID.TID 0000.0001)       NEIGHBOUR    2 = TILE  183 Comm = PUT ( PROC =    1)
(PID.TID 0000.0001)       NEIGHBOUR    3 = TILE  188 Comm = PUT ( PROC =    1)
(PID.TID 0000.0001)       NEIGHBOUR    4 = TILE  186 Comm = PUT ( PROC =    1)
(PID.TID 0000.0001)  TILE:  188
(PID.TID 0000.0001)       NEIGHBOUR    1 = TILE  192 Comm = PUT ( PROC =    1)
(PID.TID 0000.0001)       NEIGHBOUR    2 = TILE  184 Comm = PUT ( PROC =    1)
(PID.TID 0000.0001)       NEIGHBOUR    3 = TILE   33 Comm = PUT ( PROC =    1)
(PID.TID 0000.0001)       NEIGHBOUR    4 = TILE  187 Comm = PUT ( PROC =    1)
(PID.TID 0000.0001)  TILE:  189
(PID.TID 0000.0001)       NEIGHBOUR    1 = TILE    1 Comm = PUT ( PROC =    1)
(PID.TID 0000.0001)       NEIGHBOUR    2 = TILE  185 Comm = PUT ( PROC =    1)
(PID.TID 0000.0001)       NEIGHBOUR    3 = TILE  190 Comm = PUT ( PROC =    1)
(PID.TID 0000.0001)       NEIGHBOUR    4 = TILE  160 Comm = PUT ( PROC =    1)
(PID.TID 0000.0001)  TILE:  190
(PID.TID 0000.0001)       NEIGHBOUR    1 = TILE    2 Comm = PUT ( PROC =    1)
(PID.TID 0000.0001)       NEIGHBOUR    2 = TILE  186 Comm = PUT ( PROC =    1)
(PID.TID 0000.0001)       NEIGHBOUR    3 = TILE  191 Comm = PUT ( PROC =    1)
(PID.TID 0000.0001)       NEIGHBOUR    4 = TILE  189 Comm = PUT ( PROC =    1)
(PID.TID 0000.0001)  TILE:  191
(PID.TID 0000.0001)       NEIGHBOUR    1 = TILE    3 Comm = PUT ( PROC =    1)
(PID.TID 0000.0001)       NEIGHBOUR    2 = TILE  187 Comm = PUT ( PROC =    1)
(PID.TID 0000.0001)       NEIGHBOUR    3 = TILE  192 Comm = PUT ( PROC =    1)
(PID.TID 0000.0001)       NEIGHBOUR    4 = TILE  190 Comm = PUT ( PROC =    1)
(PID.TID 0000.0001)  TILE:  192
(PID.TID 0000.0001)       NEIGHBOUR    1 = TILE    4 Comm = PUT ( PROC =    1)
(PID.TID 0000.0001)       NEIGHBOUR    2 = TILE  188 Comm = PUT ( PROC =    1)
(PID.TID 0000.0001)       NEIGHBOUR    3 = TILE   33 Comm = PUT ( PROC =    1)
(PID.TID 0000.0001)       NEIGHBOUR    4 = TILE  191 Comm = PUT ( PROC =    1)
(PID.TID 0000.0001) Tile    1(proc =   1) sends points i=  -1:  10, j=  -1:   0
(PID.TID 0000.0001)                          to points i=  -1:  10, j=  -1:   0 in tile    5(proc =   1)
(PID.TID 0000.0001) Tile    1(proc =   1) sends points i=  -1:  10, j= -27: -26
(PID.TID 0000.0001)                          to points i=  -1:  10, j=   5:   6 in tile  189(proc =   1)
(PID.TID 0000.0001) Tile    1(proc =   1) sends points i=  -1:   0, j=  -1:   6
(PID.TID 0000.0001)                          to points i=  -1:   0, j=  -1:   6 in tile    2(proc =   1)
(PID.TID 0000.0001) Tile    1(proc =   1) sends points i= -27: -26, j=  30:  23
(PID.TID 0000.0001)                          to points i=   3:  10, j=   5:   6 in tile  160(proc =   1)
(PID.TID 0000.0001) Tile    2(proc =   1) sends points i=  -1:  10, j=  -1:   0
(PID.TID 0000.0001)                          to points i=  -1:  10, j=  -1:   0 in tile    6(proc =   1)
(PID.TID 0000.0001) Tile    2(proc =   1) sends points i=  -1:  10, j= -27: -26
(PID.TID 0000.0001)                          to points i=  -1:  10, j=   5:   6 in tile  190(proc =   1)
(PID.TID 0000.0001) Tile    2(proc =   1) sends points i=  -1:   0, j=  -1:   6
(PID.TID 0000.0001)                          to points i=  -1:   0, j=  -1:   6 in tile    3(proc =   1)
(PID.TID 0000.0001) Tile    2(proc =   1) sends points i=   9:  10, j=  -1:   6
(PID.TID 0000.0001)                          to points i=   9:  10, j=  -1:   6 in tile    1(proc =   1)
(PID.TID 0000.0001) Tile    3(proc =   1) sends points i=  -1:  10, j=  -1:   0
(PID.TID 0000.0001)                          to points i=  -1:  10, j=  -1:   0 in tile    7(proc =   1)
(PID.TID 0000.0001) Tile    3(proc =   1) sends points i=  -1:  10, j= -27: -26
(PID.TID 0000.0001)                          to points i=  -1:  10, j=   5:   6 in tile  191(proc =   1)
(PID.TID 0000.0001) Tile    3(proc =   1) sends points i=  -1:   0, j=  -1:   6
(PID.TID 0000.0001)                          to points i=  -1:   0, j=  -1:   6 in tile    4(proc =   1)
(PID.TID 0000.0001) Tile    3(proc =   1) sends points i=   9:  10, j=  -1:   6
(PID.TID 0000.0001)                          to points i=   9:  10, j=  -1:   6 in tile    2(proc =   1)
(PID.TID 0000.0001) Tile    4(proc =   1) sends points i=  -1:  10, j=  -1:   0
(PID.TID 0000.0001)                          to points i=  -1:  10, j=  -1:   0 in tile    8(proc =   1)
(PID.TID 0000.0001) Tile    4(proc =   1) sends points i=  -1:  10, j= -27: -26
(PID.TID 0000.0001)                          to points i=  -1:  10, j=   5:   6 in tile  192(proc =   1)
(PID.TID 0000.0001) Tile    4(proc =   1) sends points i=  31:  32, j=  -1:   6
(PID.TID 0000.0001)                          to points i=  -1:   0, j=  -1:   6 in tile   33(proc =   1)
(PID.TID 0000.0001) Tile    4(proc =   1) sends points i=   9:  10, j=  -1:   6
(PID.TID 0000.0001)                          to points i=   9:  10, j=  -1:   6 in tile    3(proc =   1)
(PID.TID 0000.0001) Tile    5(proc =   1) sends points i=  -1:  10, j=  -1:   0
(PID.TID 0000.0001)                          to points i=  -1:  10, j=  -1:   0 in tile    9(proc =   1)
(PID.TID 0000.0001) Tile    5(proc =   1) sends points i=   0:   9, j=   5:   6
(PID.TID 0000.0001)                          to points i=   0:   9, j=   5:   6 in tile    1(proc =   1)
(PID.TID 0000.0001) Tile    5(proc =   1) sends points i=  -1:   0, j=  -1:   6
(PID.TID 0000.0001)                          to points i=  -1:   0, j=  -1:   6 in tile    6(proc =   1)
(PID.TID 0000.0001) Tile    5(proc =   1) sends points i= -27: -26, j=  34:  27
(PID.TID 0000.0001)                          to points i=  -1:   6, j=   5:   6 in tile  160(proc =   1)
(PID.TID 0000.0001) Tile    6(proc =   1) sends points i=  -1:  10, j=  -1:   0
(PID.TID 0000.0001)                          to points i=  -1:  10, j=  -1:   0 in tile   10(proc =   1)
(PID.TID 0000.0001) Tile    6(proc =   1) sends points i=   0:   9, j=   5:   6
(PID.TID 0000.0001)                          to points i=   0:   9, j=   5:   6 in tile    2(proc =   1)
(PID.TID 0000.0001) Tile    6(proc =   1) sends points i=  -1:   0, j=  -1:   6
(PID.TID 0000.0001)                          to points i=  -1:   0, j=  -1:   6 in tile    7(proc =   1)
(PID.TID 0000.0001) Tile    6(proc =   1) sends points i=   9:  10, j=  -1:   6
(PID.TID 0000.0001)                          to points i=   9:  10, j=  -1:   6 in tile    5(proc =   1)
(PID.TID 0000.0001) Tile    7(proc =   1) sends points i=  -1:  10, j=  -1:   0
(PID.TID 0000.0001)                          to points i=  -1:  10, j=  -1:   0 in tile   11(proc =   1)
(PID.TID 0000.0001) Tile    7(proc =   1) sends points i=   0:   9, j=   5:   6
(PID.TID 0000.0001)                          to points i=   0:   9, j=   5:   6 in tile    3(proc =   1)
(PID.TID 0000.0001) Tile    7(proc =   1) sends points i=  -1:   0, j=  -1:   6
(PID.TID 0000.0001)                          to points i=  -1:   0, j=  -1:   6 in tile    8(proc =   1)
(PID.TID 0000.0001) Tile    7(proc =   1) sends points i=   9:  10, j=  -1:   6
(PID.TID 0000.0001)                          to points i=   9:  10, j=  -1:   6 in tile    6(proc =   1)
(PID.TID 0000.0001) Tile    8(proc =   1) sends points i=  -1:  10, j=  -1:   0
(PID.TID 0000.0001)                          to points i=  -1:  10, j=  -1:   0 in tile   12(proc =   1)
(PID.TID 0000.0001) Tile    8(proc =   1) sends points i=   0:   9, j=   5:   6
(PID.TID 0000.0001)                          to points i=   0:   9, j=   5:   6 in tile    4(proc =   1)
(PID.TID 0000.0001) Tile    8(proc =   1) sends points i=  31:  32, j=  -1:   6
(PID.TID 0000.0001)                          to points i=  -1:   0, j=  -1:   6 in tile   37(proc =   1)
(PID.TID 0000.0001) Tile    8(proc =   1) sends points i=   9:  10, j=  -1:   6
(PID.TID 0000.0001)                          to points i=   9:  10, j=  -1:   6 in tile    7(proc =   1)
(PID.TID 0000.0001) Tile    9(proc =   1) sends points i=  -1:  10, j=  -1:   0
(PID.TID 0000.0001)                          to points i=  -1:  10, j=  -1:   0 in tile   13(proc =   1)
(PID.TID 0000.0001) Tile    9(proc =   1) sends points i=   0:   9, j=   5:   6
(PID.TID 0000.0001)                          to points i=   0:   9, j=   5:   6 in tile    5(proc =   1)
(PID.TID 0000.0001) Tile    9(proc =   1) sends points i=  -1:   0, j=  -1:   6
(PID.TID 0000.0001)                          to points i=  -1:   0, j=  -1:   6 in tile   10(proc =   1)
(PID.TID 0000.0001) Tile    9(proc =   1) sends points i= -27: -26, j=  30:  23
(PID.TID 0000.0001)                          to points i=   3:  10, j=   5:   6 in tile  159(proc =   1)
(PID.TID 0000.0001) Tile   10(proc =   1) sends points i=  -1:  10, j=  -1:   0
(PID.TID 0000.0001)                          to points i=  -1:  10, j=  -1:   0 in tile   14(proc =   1)
(PID.TID 0000.0001) Tile   10(proc =   1) sends points i=   0:   9, j=   5:   6
(PID.TID 0000.0001)                          to points i=   0:   9, j=   5:   6 in tile    6(proc =   1)
(PID.TID 0000.0001) Tile   10(proc =   1) sends points i=  -1:   0, j=  -1:   6
(PID.TID 0000.0001)                          to points i=  -1:   0, j=  -1:   6 in tile   11(proc =   1)
(PID.TID 0000.0001) Tile   10(proc =   1) sends points i=   9:  10, j=  -1:   6
(PID.TID 0000.0001)                          to points i=   9:  10, j=  -1:   6 in tile    9(proc =   1)
(PID.TID 0000.0001) Tile   11(proc =   1) sends points i=  -1:  10, j=  -1:   0
(PID.TID 0000.0001)                          to points i=  -1:  10, j=  -1:   0 in tile   15(proc =   1)
(PID.TID 0000.0001) Tile   11(proc =   1) sends points i=   0:   9, j=   5:   6
(PID.TID 0000.0001)                          to points i=   0:   9, j=   5:   6 in tile    7(proc =   1)
(PID.TID 0000.0001) Tile   11(proc =   1) sends points i=  -1:   0, j=  -1:   6
(PID.TID 0000.0001)                          to points i=  -1:   0, j=  -1:   6 in tile   12(proc =   1)
(PID.TID 0000.0001) Tile   11(proc =   1) sends points i=   9:  10, j=  -1:   6
(PID.TID 0000.0001)                          to points i=   9:  10, j=  -1:   6 in tile   10(proc =   1)
(PID.TID 0000.0001) Tile   12(proc =   1) sends points i=  -1:  10, j=  -1:   0
(PID.TID 0000.0001)                          to points i=  -1:  10, j=  -1:   0 in tile   16(proc =   1)
(PID.TID 0000.0001) Tile   12(proc =   1) sends points i=   0:   9, j=   5:   6
(PID.TID 0000.0001)                          to points i=   0:   9, j=   5:   6 in tile    8(proc =   1)
(PID.TID 0000.0001) Tile   12(proc =   1) sends points i=  31:  32, j=  -1:   6
(PID.TID 0000.0001)                          to points i=  -1:   0, j=  -1:   6 in tile   41(proc =   1)
(PID.TID 0000.0001) Tile   12(proc =   1) sends points i=   9:  10, j=  -1:   6
(PID.TID 0000.0001)                          to points i=   9:  10, j=  -1:   6 in tile   11(proc =   1)
(PID.TID 0000.0001) Tile   13(proc =   1) sends points i=  -1:  10, j=  -1:   0
(PID.TID 0000.0001)                          to points i=  -1:  10, j=  -1:   0 in tile   17(proc =   1)
(PID.TID 0000.0001) Tile   13(proc =   1) sends points i=   0:   9, j=   5:   6
(PID.TID 0000.0001)                          to points i=   0:   9, j=   5:   6 in tile    9(proc =   1)
(PID.TID 0000.0001) Tile   13(proc =   1) sends points i=  -1:   0, j=  -1:   6
(PID.TID 0000.0001)                          to points i=  -1:   0, j=  -1:   6 in tile   14(proc =   1)
(PID.TID 0000.0001) Tile   13(proc =   1) sends points i= -27: -26, j=  34:  27
(PID.TID 0000.0001)                          to points i=  -1:   6, j=   5:   6 in tile  159(proc =   1)
(PID.TID 0000.0001) Tile   14(proc =   1) sends points i=  -1:  10, j=  -1:   0
(PID.TID 0000.0001)                          to points i=  -1:  10, j=  -1:   0 in tile   18(proc =   1)
(PID.TID 0000.0001) Tile   14(proc =   1) sends points i=   0:   9, j=   5:   6
(PID.TID 0000.0001)                          to points i=   0:   9, j=   5:   6 in tile   10(proc =   1)
(PID.TID 0000.0001) Tile   14(proc =   1) sends points i=  -1:   0, j=  -1:   6
(PID.TID 0000.0001)                          to points i=  -1:   0, j=  -1:   6 in tile   15(proc =   1)
(PID.TID 0000.0001) Tile   14(proc =   1) sends points i=   9:  10, j=  -1:   6
(PID.TID 0000.0001)                          to points i=   9:  10, j=  -1:   6 in tile   13(proc =   1)
(PID.TID 0000.0001) Tile   15(proc =   1) sends points i=  -1:  10, j=  -1:   0
(PID.TID 0000.0001)                          to points i=  -1:  10, j=  -1:   0 in tile   19(proc =   1)
(PID.TID 0000.0001) Tile   15(proc =   1) sends points i=   0:   9, j=   5:   6
(PID.TID 0000.0001)                          to points i=   0:   9, j=   5:   6 in tile   11(proc =   1)
(PID.TID 0000.0001) Tile   15(proc =   1) sends points i=  -1:   0, j=  -1:   6
(PID.TID 0000.0001)                          to points i=  -1:   0, j=  -1:   6 in tile   16(proc =   1)
(PID.TID 0000.0001) Tile   15(proc =   1) sends points i=   9:  10, j=  -1:   6
(PID.TID 0000.0001)                          to points i=   9:  10, j=  -1:   6 in tile   14(proc =   1)
(PID.TID 0000.0001) Tile   16(proc =   1) sends points i=  -1:  10, j=  -1:   0
(PID.TID 0000.0001)                          to points i=  -1:  10, j=  -1:   0 in tile   20(proc =   1)
(PID.TID 0000.0001) Tile   16(proc =   1) sends points i=   0:   9, j=   5:   6
(PID.TID 0000.0001)                          to points i=   0:   9, j=   5:   6 in tile   12(proc =   1)
(PID.TID 0000.0001) Tile   16(proc =   1) sends points i=  31:  32, j=  -1:   6
(PID.TID 0000.0001)                          to points i=  -1:   0, j=  -1:   6 in tile   45(proc =   1)
(PID.TID 0000.0001) Tile   16(proc =   1) sends points i=   9:  10, j=  -1:   6
(PID.TID 0000.0001)                          to points i=   9:  10, j=  -1:   6 in tile   15(proc =   1)
(PID.TID 0000.0001) Tile   17(proc =   1) sends points i=  -1:  10, j=  -1:   0
(PID.TID 0000.0001)                          to points i=  -1:  10, j=  -1:   0 in tile   21(proc =   1)
(PID.TID 0000.0001) Tile   17(proc =   1) sends points i=   0:   9, j=   5:   6
(PID.TID 0000.0001)                          to points i=   0:   9, j=   5:   6 in tile   13(proc =   1)
(PID.TID 0000.0001) Tile   17(proc =   1) sends points i=  -1:   0, j=  -1:   6
(PID.TID 0000.0001)                          to points i=  -1:   0, j=  -1:   6 in tile   18(proc =   1)
(PID.TID 0000.0001) Tile   17(proc =   1) sends points i= -27: -26, j=  30:  23
(PID.TID 0000.0001)                          to points i=   3:  10, j=   5:   6 in tile  158(proc =   1)
(PID.TID 0000.0001) Tile   18(proc =   1) sends points i=  -1:  10, j=  -1:   0
(PID.TID 0000.0001)                          to points i=  -1:  10, j=  -1:   0 in tile   22(proc =   1)
(PID.TID 0000.0001) Tile   18(proc =   1) sends points i=   0:   9, j=   5:   6
(PID.TID 0000.0001)                          to points i=   0:   9, j=   5:   6 in tile   14(proc =   1)
(PID.TID 0000.0001) Tile   18(proc =   1) sends points i=  -1:   0, j=  -1:   6
(PID.TID 0000.0001)                          to points i=  -1:   0, j=  -1:   6 in tile   19(proc =   1)
(PID.TID 0000.0001) Tile   18(proc =   1) sends points i=   9:  10, j=  -1:   6
(PID.TID 0000.0001)                          to points i=   9:  10, j=  -1:   6 in tile   17(proc =   1)
(PID.TID 0000.0001) Tile   19(proc =   1) sends points i=  -1:  10, j=  -1:   0
(PID.TID 0000.0001)                          to points i=  -1:  10, j=  -1:   0 in tile   23(proc =   1)
(PID.TID 0000.0001) Tile   19(proc =   1) sends points i=   0:   9, j=   5:   6
(PID.TID 0000.0001)                          to points i=   0:   9, j=   5:   6 in tile   15(proc =   1)
(PID.TID 0000.0001) Tile   19(proc =   1) sends points i=  -1:   0, j=  -1:   6
(PID.TID 0000.0001)                          to points i=  -1:   0, j=  -1:   6 in tile   20(proc =   1)
(PID.TID 0000.0001) Tile   19(proc =   1) sends points i=   9:  10, j=  -1:   6
(PID.TID 0000.0001)                          to points i=   9:  10, j=  -1:   6 in tile   18(proc =   1)
(PID.TID 0000.0001) Tile   20(proc =   1) sends points i=  -1:  10, j=  -1:   0
(PID.TID 0000.0001)                          to points i=  -1:  10, j=  -1:   0 in tile   24(proc =   1)
(PID.TID 0000.0001) Tile   20(proc =   1) sends points i=   0:   9, j=   5:   6
(PID.TID 0000.0001)                          to points i=   0:   9, j=   5:   6 in tile   16(proc =   1)
(PID.TID 0000.0001) Tile   20(proc =   1) sends points i=  31:  32, j=  -1:   6
(PID.TID 0000.0001)                          to points i=  -1:   0, j=  -1:   6 in tile   49(proc =   1)
(PID.TID 0000.0001) Tile   20(proc =   1) sends points i=   9:  10, j=  -1:   6
(PID.TID 0000.0001)                          to points i=   9:  10, j=  -1:   6 in tile   19(proc =   1)
(PID.TID 0000.0001) Tile   21(proc =   1) sends points i=  -1:  10, j=  -1:   0
(PID.TID 0000.0001)                          to points i=  -1:  10, j=  -1:   0 in tile   25(proc =   1)
(PID.TID 0000.0001) Tile   21(proc =   1) sends points i=   0:   9, j=   5:   6
(PID.TID 0000.0001)                          to points i=   0:   9, j=   5:   6 in tile   17(proc =   1)
(PID.TID 0000.0001) Tile   21(proc =   1) sends points i=  -1:   0, j=  -1:   6
(PID.TID 0000.0001)                          to points i=  -1:   0, j=  -1:   6 in tile   22(proc =   1)
(PID.TID 0000.0001) Tile   21(proc =   1) sends points i= -27: -26, j=  34:  27
(PID.TID 0000.0001)                          to points i=  -1:   6, j=   5:   6 in tile  158(proc =   1)
(PID.TID 0000.0001) Tile   22(proc =   1) sends points i=  -1:  10, j=  -1:   0
(PID.TID 0000.0001)                          to points i=  -1:  10, j=  -1:   0 in tile   26(proc =   1)
(PID.TID 0000.0001) Tile   22(proc =   1) sends points i=   0:   9, j=   5:   6
(PID.TID 0000.0001)                          to points i=   0:   9, j=   5:   6 in tile   18(proc =   1)
(PID.TID 0000.0001) Tile   22(proc =   1) sends points i=  -1:   0, j=  -1:   6
(PID.TID 0000.0001)                          to points i=  -1:   0, j=  -1:   6 in tile   23(proc =   1)
(PID.TID 0000.0001) Tile   22(proc =   1) sends points i=   9:  10, j=  -1:   6
(PID.TID 0000.0001)                          to points i=   9:  10, j=  -1:   6 in tile   21(proc =   1)
(PID.TID 0000.0001) Tile   23(proc =   1) sends points i=  -1:  10, j=  -1:   0
(PID.TID 0000.0001)                          to points i=  -1:  10, j=  -1:   0 in tile   27(proc =   1)
(PID.TID 0000.0001) Tile   23(proc =   1) sends points i=   0:   9, j=   5:   6
(PID.TID 0000.0001)                          to points i=   0:   9, j=   5:   6 in tile   19(proc =   1)
(PID.TID 0000.0001) Tile   23(proc =   1) sends points i=  -1:   0, j=  -1:   6
(PID.TID 0000.0001)                          to points i=  -1:   0, j=  -1:   6 in tile   24(proc =   1)
(PID.TID 0000.0001) Tile   23(proc =   1) sends points i=   9:  10, j=  -1:   6
(PID.TID 0000.0001)                          to points i=   9:  10, j=  -1:   6 in tile   22(proc =   1)
(PID.TID 0000.0001) Tile   24(proc =   1) sends points i=  -1:  10, j=  -1:   0
(PID.TID 0000.0001)                          to points i=  -1:  10, j=  -1:   0 in tile   28(proc =   1)
(PID.TID 0000.0001) Tile   24(proc =   1) sends points i=   0:   9, j=   5:   6
(PID.TID 0000.0001)                          to points i=   0:   9, j=   5:   6 in tile   20(proc =   1)
(PID.TID 0000.0001) Tile   24(proc =   1) sends points i=  31:  32, j=  -1:   6
(PID.TID 0000.0001)                          to points i=  -1:   0, j=  -1:   6 in tile   53(proc =   1)
(PID.TID 0000.0001) Tile   24(proc =   1) sends points i=   9:  10, j=  -1:   6
(PID.TID 0000.0001)                          to points i=   9:  10, j=  -1:   6 in tile   23(proc =   1)
(PID.TID 0000.0001) Tile   25(proc =   1) sends points i=  -1:  10, j=  -1:   0
(PID.TID 0000.0001)                          to points i=  -1:  10, j=  -1:   0 in tile   29(proc =   1)
(PID.TID 0000.0001) Tile   25(proc =   1) sends points i=   0:   9, j=   5:   6
(PID.TID 0000.0001)                          to points i=   0:   9, j=   5:   6 in tile   21(proc =   1)
(PID.TID 0000.0001) Tile   25(proc =   1) sends points i=  -1:   0, j=  -1:   6
(PID.TID 0000.0001)                          to points i=  -1:   0, j=  -1:   6 in tile   26(proc =   1)
(PID.TID 0000.0001) Tile   25(proc =   1) sends points i= -27: -26, j=  30:  23
(PID.TID 0000.0001)                          to points i=   3:  10, j=   5:   6 in tile  157(proc =   1)
(PID.TID 0000.0001) Tile   26(proc =   1) sends points i=  -1:  10, j=  -1:   0
(PID.TID 0000.0001)                          to points i=  -1:  10, j=  -1:   0 in tile   30(proc =   1)
(PID.TID 0000.0001) Tile   26(proc =   1) sends points i=   0:   9, j=   5:   6
(PID.TID 0000.0001)                          to points i=   0:   9, j=   5:   6 in tile   22(proc =   1)
(PID.TID 0000.0001) Tile   26(proc =   1) sends points i=  -1:   0, j=  -1:   6
(PID.TID 0000.0001)                          to points i=  -1:   0, j=  -1:   6 in tile   27(proc =   1)
(PID.TID 0000.0001) Tile   26(proc =   1) sends points i=   9:  10, j=  -1:   6
(PID.TID 0000.0001)                          to points i=   9:  10, j=  -1:   6 in tile   25(proc =   1)
(PID.TID 0000.0001) Tile   27(proc =   1) sends points i=  -1:  10, j=  -1:   0
(PID.TID 0000.0001)                          to points i=  -1:  10, j=  -1:   0 in tile   31(proc =   1)
(PID.TID 0000.0001) Tile   27(proc =   1) sends points i=   0:   9, j=   5:   6
(PID.TID 0000.0001)                          to points i=   0:   9, j=   5:   6 in tile   23(proc =   1)
(PID.TID 0000.0001) Tile   27(proc =   1) sends points i=  -1:   0, j=  -1:   6
(PID.TID 0000.0001)                          to points i=  -1:   0, j=  -1:   6 in tile   28(proc =   1)
(PID.TID 0000.0001) Tile   27(proc =   1) sends points i=   9:  10, j=  -1:   6
(PID.TID 0000.0001)                          to points i=   9:  10, j=  -1:   6 in tile   26(proc =   1)
(PID.TID 0000.0001) Tile   28(proc =   1) sends points i=  -1:  10, j=  -1:   0
(PID.TID 0000.0001)                          to points i=  -1:  10, j=  -1:   0 in tile   32(proc =   1)
(PID.TID 0000.0001) Tile   28(proc =   1) sends points i=   0:   9, j=   5:   6
(PID.TID 0000.0001)                          to points i=   0:   9, j=   5:   6 in tile   24(proc =   1)
(PID.TID 0000.0001) Tile   28(proc =   1) sends points i=  31:  32, j=  -1:   6
(PID.TID 0000.0001)                          to points i=  -1:   0, j=  -1:   6 in tile   57(proc =   1)
(PID.TID 0000.0001) Tile   28(proc =   1) sends points i=   9:  10, j=  -1:   6
(PID.TID 0000.0001)                          to points i=   9:  10, j=  -1:   6 in tile   27(proc =   1)
(PID.TID 0000.0001) Tile   29(proc =   1) sends points i=  34:  27, j=  31:  32
(PID.TID 0000.0001)                          to points i=  -1:   0, j=  -1:   6 in tile   89(proc =   1)
(PID.TID 0000.0001) Tile   29(proc =   1) sends points i=  34:  27, j=  31:  32
(PID.TID 0000.0001)                          to points i=  -1:   0, j=  -1:   6 in tile   93(proc =   1)
(PID.TID 0000.0001) Tile   29(proc =   1) sends points i=   0:   9, j=   5:   6
(PID.TID 0000.0001)                          to points i=   0:   9, j=   5:   6 in tile   25(proc =   1)
(PID.TID 0000.0001) Tile   29(proc =   1) sends points i=  -1:   0, j=  -1:   6
(PID.TID 0000.0001)                          to points i=  -1:   0, j=  -1:   6 in tile   30(proc =   1)
(PID.TID 0000.0001) Tile   29(proc =   1) sends points i= -27: -26, j=  34:  27
(PID.TID 0000.0001)                          to points i=  -1:   6, j=   5:   6 in tile  157(proc =   1)
(PID.TID 0000.0001) Tile   30(proc =   1) sends points i=  34:  27, j=  31:  32
(PID.TID 0000.0001)                          to points i=  -1:   0, j=  -1:   6 in tile   81(proc =   1)
(PID.TID 0000.0001) Tile   30(proc =   1) sends points i=  34:  27, j=  31:  32
(PID.TID 0000.0001)                          to points i=  -1:   0, j=  -1:   6 in tile   85(proc =   1)
(PID.TID 0000.0001) Tile   30(proc =   1) sends points i=   0:   9, j=   5:   6
(PID.TID 0000.0001)                          to points i=   0:   9, j=   5:   6 in tile   26(proc =   1)
(PID.TID 0000.0001) Tile   30(proc =   1) sends points i=  -1:   0, j=  -1:   6
(PID.TID 0000.0001)                          to points i=  -1:   0, j=  -1:   6 in tile   31(proc =   1)
(PID.TID 0000.0001) Tile   30(proc =   1) sends points i=   9:  10, j=  -1:   6
(PID.TID 0000.0001)                          to points i=   9:  10, j=  -1:   6 in tile   29(proc =   1)
(PID.TID 0000.0001) Tile   31(proc =   1) sends points i=  34:  27, j=  31:  32
(PID.TID 0000.0001)                          to points i=  -1:   0, j=  -1:   6 in tile   73(proc =   1)
(PID.TID 0000.0001) Tile   31(proc =   1) sends points i=  34:  27, j=  31:  32
(PID.TID 0000.0001)                          to points i=  -1:   0, j=  -1:   6 in tile   77(proc =   1)
(PID.TID 0000.0001) Tile   31(proc =   1) sends points i=   0:   9, j=   5:   6
(PID.TID 0000.0001)                          to points i=   0:   9, j=   5:   6 in tile   27(proc =   1)
(PID.TID 0000.0001) Tile   31(proc =   1) sends points i=  -1:   0, j=  -1:   6
(PID.TID 0000.0001)                          to points i=  -1:   0, j=  -1:   6 in tile   32(proc =   1)
(PID.TID 0000.0001) Tile   31(proc =   1) sends points i=   9:  10, j=  -1:   6
(PID.TID 0000.0001)                          to points i=   9:  10, j=  -1:   6 in tile   30(proc =   1)
(PID.TID 0000.0001) Tile   32(proc =   1) sends points i=  34:  27, j=  31:  32
(PID.TID 0000.0001)                          to points i=  -1:   0, j=  -1:   6 in tile   65(proc =   1)
(PID.TID 0000.0001) Tile   32(proc =   1) sends points i=  34:  27, j=  31:  32
(PID.TID 0000.0001)                          to points i=  -1:   0, j=  -1:   6 in tile   69(proc =   1)
(PID.TID 0000.0001) Tile   32(proc =   1) sends points i=   0:   9, j=   5:   6
(PID.TID 0000.0001)                          to points i=   0:   9, j=   5:   6 in tile   28(proc =   1)
(PID.TID 0000.0001) Tile   32(proc =   1) sends points i=  31:  32, j=  -1:   6
(PID.TID 0000.0001)                          to points i=  -1:   0, j=  -1:   6 in tile   61(proc =   1)
(PID.TID 0000.0001) Tile   32(proc =   1) sends points i=   9:  10, j=  -1:   6
(PID.TID 0000.0001)                          to points i=   9:  10, j=  -1:   6 in tile   31(proc =   1)
(PID.TID 0000.0001) Tile   33(proc =   1) sends points i=  -1:  10, j=  -1:   0
(PID.TID 0000.0001)                          to points i=  -1:  10, j=  -1:   0 in tile   37(proc =   1)
(PID.TID 0000.0001) Tile   33(proc =   1) sends points i=  34:  27, j= -23: -22
(PID.TID 0000.0001)                          to points i=   9:  10, j=  -1:   6 in tile  188(proc =   1)
(PID.TID 0000.0001) Tile   33(proc =   1) sends points i=  34:  27, j= -23: -22
(PID.TID 0000.0001)                          to points i=   9:  10, j=  -1:   6 in tile  192(proc =   1)
(PID.TID 0000.0001) Tile   33(proc =   1) sends points i=  -1:   0, j=  -1:   6
(PID.TID 0000.0001)                          to points i=  -1:   0, j=  -1:   6 in tile   34(proc =   1)
(PID.TID 0000.0001) Tile   33(proc =   1) sends points i= -23: -22, j=  -1:   6
(PID.TID 0000.0001)                          to points i=   9:  10, j=  -1:   6 in tile    4(proc =   1)
(PID.TID 0000.0001) Tile   34(proc =   1) sends points i=  -1:  10, j=  -1:   0
(PID.TID 0000.0001)                          to points i=  -1:  10, j=  -1:   0 in tile   38(proc =   1)
(PID.TID 0000.0001) Tile   34(proc =   1) sends points i=  34:  27, j= -23: -22
(PID.TID 0000.0001)                          to points i=   9:  10, j=  -1:   6 in tile  180(proc =   1)
(PID.TID 0000.0001) Tile   34(proc =   1) sends points i=  34:  27, j= -23: -22
(PID.TID 0000.0001)                          to points i=   9:  10, j=  -1:   6 in tile  184(proc =   1)
(PID.TID 0000.0001) Tile   34(proc =   1) sends points i=  -1:   0, j=  -1:   6
(PID.TID 0000.0001)                          to points i=  -1:   0, j=  -1:   6 in tile   35(proc =   1)
(PID.TID 0000.0001) Tile   34(proc =   1) sends points i=   9:  10, j=  -1:   6
(PID.TID 0000.0001)                          to points i=   9:  10, j=  -1:   6 in tile   33(proc =   1)
(PID.TID 0000.0001) Tile   35(proc =   1) sends points i=  -1:  10, j=  -1:   0
(PID.TID 0000.0001)                          to points i=  -1:  10, j=  -1:   0 in tile   39(proc =   1)
(PID.TID 0000.0001) Tile   35(proc =   1) sends points i=  34:  27, j= -23: -22
(PID.TID 0000.0001)                          to points i=   9:  10, j=  -1:   6 in tile  172(proc =   1)
(PID.TID 0000.0001) Tile   35(proc =   1) sends points i=  34:  27, j= -23: -22
(PID.TID 0000.0001)                          to points i=   9:  10, j=  -1:   6 in tile  176(proc =   1)
(PID.TID 0000.0001) Tile   35(proc =   1) sends points i=  -1:   0, j=  -1:   6
(PID.TID 0000.0001)                          to points i=  -1:   0, j=  -1:   6 in tile   36(proc =   1)
(PID.TID 0000.0001) Tile   35(proc =   1) sends points i=   9:  10, j=  -1:   6
(PID.TID 0000.0001)                          to points i=   9:  10, j=  -1:   6 in tile   34(proc =   1)
(PID.TID 0000.0001) Tile   36(proc =   1) sends points i=  -1:  10, j=  -1:   0
(PID.TID 0000.0001)                          to points i=  -1:  10, j=  -1:   0 in tile   40(proc =   1)
(PID.TID 0000.0001) Tile   36(proc =   1) sends points i=  34:  27, j= -23: -22
(PID.TID 0000.0001)                          to points i=   9:  10, j=  -1:   6 in tile  164(proc =   1)
(PID.TID 0000.0001) Tile   36(proc =   1) sends points i=  34:  27, j= -23: -22
(PID.TID 0000.0001)                          to points i=   9:  10, j=  -1:   6 in tile  168(proc =   1)
(PID.TID 0000.0001) Tile   36(proc =   1) sends points i=  31:  32, j=  30:  23
(PID.TID 0000.0001)                          to points i=   3:  10, j=  -1:   0 in tile  100(proc =   1)
(PID.TID 0000.0001) Tile   36(proc =   1) sends points i=   9:  10, j=  -1:   6
(PID.TID 0000.0001)                          to points i=   9:  10, j=  -1:   6 in tile   35(proc =   1)
(PID.TID 0000.0001) Tile   37(proc =   1) sends points i=  -1:  10, j=  -1:   0
(PID.TID 0000.0001)                          to points i=  -1:  10, j=  -1:   0 in tile   41(proc =   1)
(PID.TID 0000.0001) Tile   37(proc =   1) sends points i=   0:   9, j=   5:   6
(PID.TID 0000.0001)                          to points i=   0:   9, j=   5:   6 in tile   33(proc =   1)
(PID.TID 0000.0001) Tile   37(proc =   1) sends points i=  -1:   0, j=  -1:   6
(PID.TID 0000.0001)                          to points i=  -1:   0, j=  -1:   6 in tile   38(proc =   1)
(PID.TID 0000.0001) Tile   37(proc =   1) sends points i= -23: -22, j=  -1:   6
(PID.TID 0000.0001)                          to points i=   9:  10, j=  -1:   6 in tile    8(proc =   1)
(PID.TID 0000.0001) Tile   38(proc =   1) sends points i=  -1:  10, j=  -1:   0
(PID.TID 0000.0001)                          to points i=  -1:  10, j=  -1:   0 in tile   42(proc =   1)
(PID.TID 0000.0001) Tile   38(proc =   1) sends points i=   0:   9, j=   5:   6
(PID.TID 0000.0001)                          to points i=   0:   9, j=   5:   6 in tile   34(proc =   1)
(PID.TID 0000.0001) Tile   38(proc =   1) sends points i=  -1:   0, j=  -1:   6
(PID.TID 0000.0001)                          to points i=  -1:   0, j=  -1:   6 in tile   39(proc =   1)
(PID.TID 0000.0001) Tile   38(proc =   1) sends points i=   9:  10, j=  -1:   6
(PID.TID 0000.0001)                          to points i=   9:  10, j=  -1:   6 in tile   37(proc =   1)
(PID.TID 0000.0001) Tile   39(proc =   1) sends points i=  -1:  10, j=  -1:   0
(PID.TID 0000.0001)                          to points i=  -1:  10, j=  -1:   0 in tile   43(proc =   1)
(PID.TID 0000.0001) Tile   39(proc =   1) sends points i=   0:   9, j=   5:   6
(PID.TID 0000.0001)                          to points i=   0:   9, j=   5:   6 in tile   35(proc =   1)
(PID.TID 0000.0001) Tile   39(proc =   1) sends points i=  -1:   0, j=  -1:   6
(PID.TID 0000.0001)                          to points i=  -1:   0, j=  -1:   6 in tile   40(proc =   1)
(PID.TID 0000.0001) Tile   39(proc =   1) sends points i=   9:  10, j=  -1:   6
(PID.TID 0000.0001)                          to points i=   9:  10, j=  -1:   6 in tile   38(proc =   1)
(PID.TID 0000.0001) Tile   40(proc =   1) sends points i=  -1:  10, j=  -1:   0
(PID.TID 0000.0001)                          to points i=  -1:  10, j=  -1:   0 in tile   44(proc =   1)
(PID.TID 0000.0001) Tile   40(proc =   1) sends points i=   0:   9, j=   5:   6
(PID.TID 0000.0001)                          to points i=   0:   9, j=   5:   6 in tile   36(proc =   1)
(PID.TID 0000.0001) Tile   40(proc =   1) sends points i=  31:  32, j=  34:  27
(PID.TID 0000.0001)                          to points i=  -1:   6, j=  -1:   0 in tile  100(proc =   1)
(PID.TID 0000.0001) Tile   40(proc =   1) sends points i=   9:  10, j=  -1:   6
(PID.TID 0000.0001)                          to points i=   9:  10, j=  -1:   6 in tile   39(proc =   1)
(PID.TID 0000.0001) Tile   41(proc =   1) sends points i=  -1:  10, j=  -1:   0
(PID.TID 0000.0001)                          to points i=  -1:  10, j=  -1:   0 in tile   45(proc =   1)
(PID.TID 0000.0001) Tile   41(proc =   1) sends points i=   0:   9, j=   5:   6
(PID.TID 0000.0001)                          to points i=   0:   9, j=   5:   6 in tile   37(proc =   1)
(PID.TID 0000.0001) Tile   41(proc =   1) sends points i=  -1:   0, j=  -1:   6
(PID.TID 0000.0001)                          to points i=  -1:   0, j=  -1:   6 in tile   42(proc =   1)
(PID.TID 0000.0001) Tile   41(proc =   1) sends points i= -23: -22, j=  -1:   6
(PID.TID 0000.0001)                          to points i=   9:  10, j=  -1:   6 in tile   12(proc =   1)
(PID.TID 0000.0001) Tile   42(proc =   1) sends points i=  -1:  10, j=  -1:   0
(PID.TID 0000.0001)                          to points i=  -1:  10, j=  -1:   0 in tile   46(proc =   1)
(PID.TID 0000.0001) Tile   42(proc =   1) sends points i=   0:   9, j=   5:   6
(PID.TID 0000.0001)                          to points i=   0:   9, j=   5:   6 in tile   38(proc =   1)
(PID.TID 0000.0001) Tile   42(proc =   1) sends points i=  -1:   0, j=  -1:   6
(PID.TID 0000.0001)                          to points i=  -1:   0, j=  -1:   6 in tile   43(proc =   1)
(PID.TID 0000.0001) Tile   42(proc =   1) sends points i=   9:  10, j=  -1:   6
(PID.TID 0000.0001)                          to points i=   9:  10, j=  -1:   6 in tile   41(proc =   1)
(PID.TID 0000.0001) Tile   43(proc =   1) sends points i=  -1:  10, j=  -1:   0
(PID.TID 0000.0001)                          to points i=  -1:  10, j=  -1:   0 in tile   47(proc =   1)
(PID.TID 0000.0001) Tile   43(proc =   1) sends points i=   0:   9, j=   5:   6
(PID.TID 0000.0001)                          to points i=   0:   9, j=   5:   6 in tile   39(proc =   1)
(PID.TID 0000.0001) Tile   43(proc =   1) sends points i=  -1:   0, j=  -1:   6
(PID.TID 0000.0001)                          to points i=  -1:   0, j=  -1:   6 in tile   44(proc =   1)
(PID.TID 0000.0001) Tile   43(proc =   1) sends points i=   9:  10, j=  -1:   6
(PID.TID 0000.0001)                          to points i=   9:  10, j=  -1:   6 in tile   42(proc =   1)
(PID.TID 0000.0001) Tile   44(proc =   1) sends points i=  -1:  10, j=  -1:   0
(PID.TID 0000.0001)                          to points i=  -1:  10, j=  -1:   0 in tile   48(proc =   1)
(PID.TID 0000.0001) Tile   44(proc =   1) sends points i=   0:   9, j=   5:   6
(PID.TID 0000.0001)                          to points i=   0:   9, j=   5:   6 in tile   40(proc =   1)
(PID.TID 0000.0001) Tile   44(proc =   1) sends points i=  31:  32, j=  30:  23
(PID.TID 0000.0001)                          to points i=   3:  10, j=  -1:   0 in tile   99(proc =   1)
(PID.TID 0000.0001) Tile   44(proc =   1) sends points i=   9:  10, j=  -1:   6
(PID.TID 0000.0001)                          to points i=   9:  10, j=  -1:   6 in tile   43(proc =   1)
(PID.TID 0000.0001) Tile   45(proc =   1) sends points i=  -1:  10, j=  -1:   0
(PID.TID 0000.0001)                          to points i=  -1:  10, j=  -1:   0 in tile   49(proc =   1)
(PID.TID 0000.0001) Tile   45(proc =   1) sends points i=   0:   9, j=   5:   6
(PID.TID 0000.0001)                          to points i=   0:   9, j=   5:   6 in tile   41(proc =   1)
(PID.TID 0000.0001) Tile   45(proc =   1) sends points i=  -1:   0, j=  -1:   6
(PID.TID 0000.0001)                          to points i=  -1:   0, j=  -1:   6 in tile   46(proc =   1)
(PID.TID 0000.0001) Tile   45(proc =   1) sends points i= -23: -22, j=  -1:   6
(PID.TID 0000.0001)                          to points i=   9:  10, j=  -1:   6 in tile   16(proc =   1)
(PID.TID 0000.0001) Tile   46(proc =   1) sends points i=  -1:  10, j=  -1:   0
(PID.TID 0000.0001)                          to points i=  -1:  10, j=  -1:   0 in tile   50(proc =   1)
(PID.TID 0000.0001) Tile   46(proc =   1) sends points i=   0:   9, j=   5:   6
(PID.TID 0000.0001)                          to points i=   0:   9, j=   5:   6 in tile   42(proc =   1)
(PID.TID 0000.0001) Tile   46(proc =   1) sends points i=  -1:   0, j=  -1:   6
(PID.TID 0000.0001)                          to points i=  -1:   0, j=  -1:   6 in tile   47(proc =   1)
(PID.TID 0000.0001) Tile   46(proc =   1) sends points i=   9:  10, j=  -1:   6
(PID.TID 0000.0001)                          to points i=   9:  10, j=  -1:   6 in tile   45(proc =   1)
(PID.TID 0000.0001) Tile   47(proc =   1) sends points i=  -1:  10, j=  -1:   0
(PID.TID 0000.0001)                          to points i=  -1:  10, j=  -1:   0 in tile   51(proc =   1)
(PID.TID 0000.0001) Tile   47(proc =   1) sends points i=   0:   9, j=   5:   6
(PID.TID 0000.0001)                          to points i=   0:   9, j=   5:   6 in tile   43(proc =   1)
(PID.TID 0000.0001) Tile   47(proc =   1) sends points i=  -1:   0, j=  -1:   6
(PID.TID 0000.0001)                          to points i=  -1:   0, j=  -1:   6 in tile   48(proc =   1)
(PID.TID 0000.0001) Tile   47(proc =   1) sends points i=   9:  10, j=  -1:   6
(PID.TID 0000.0001)                          to points i=   9:  10, j=  -1:   6 in tile   46(proc =   1)
(PID.TID 0000.0001) Tile   48(proc =   1) sends points i=  -1:  10, j=  -1:   0
(PID.TID 0000.0001)                          to points i=  -1:  10, j=  -1:   0 in tile   52(proc =   1)
(PID.TID 0000.0001) Tile   48(proc =   1) sends points i=   0:   9, j=   5:   6
(PID.TID 0000.0001)                          to points i=   0:   9, j=   5:   6 in tile   44(proc =   1)
(PID.TID 0000.0001) Tile   48(proc =   1) sends points i=  31:  32, j=  34:  27
(PID.TID 0000.0001)                          to points i=  -1:   6, j=  -1:   0 in tile   99(proc =   1)
(PID.TID 0000.0001) Tile   48(proc =   1) sends points i=   9:  10, j=  -1:   6
(PID.TID 0000.0001)                          to points i=   9:  10, j=  -1:   6 in tile   47(proc =   1)
(PID.TID 0000.0001) Tile   49(proc =   1) sends points i=  -1:  10, j=  -1:   0
(PID.TID 0000.0001)                          to points i=  -1:  10, j=  -1:   0 in tile   53(proc =   1)
(PID.TID 0000.0001) Tile   49(proc =   1) sends points i=   0:   9, j=   5:   6
(PID.TID 0000.0001)                          to points i=   0:   9, j=   5:   6 in tile   45(proc =   1)
(PID.TID 0000.0001) Tile   49(proc =   1) sends points i=  -1:   0, j=  -1:   6
(PID.TID 0000.0001)                          to points i=  -1:   0, j=  -1:   6 in tile   50(proc =   1)
(PID.TID 0000.0001) Tile   49(proc =   1) sends points i= -23: -22, j=  -1:   6
(PID.TID 0000.0001)                          to points i=   9:  10, j=  -1:   6 in tile   20(proc =   1)
(PID.TID 0000.0001) Tile   50(proc =   1) sends points i=  -1:  10, j=  -1:   0
(PID.TID 0000.0001)                          to points i=  -1:  10, j=  -1:   0 in tile   54(proc =   1)
(PID.TID 0000.0001) Tile   50(proc =   1) sends points i=   0:   9, j=   5:   6
(PID.TID 0000.0001)                          to points i=   0:   9, j=   5:   6 in tile   46(proc =   1)
(PID.TID 0000.0001) Tile   50(proc =   1) sends points i=  -1:   0, j=  -1:   6
(PID.TID 0000.0001)                          to points i=  -1:   0, j=  -1:   6 in tile   51(proc =   1)
(PID.TID 0000.0001) Tile   50(proc =   1) sends points i=   9:  10, j=  -1:   6
(PID.TID 0000.0001)                          to points i=   9:  10, j=  -1:   6 in tile   49(proc =   1)
(PID.TID 0000.0001) Tile   51(proc =   1) sends points i=  -1:  10, j=  -1:   0
(PID.TID 0000.0001)                          to points i=  -1:  10, j=  -1:   0 in tile   55(proc =   1)
(PID.TID 0000.0001) Tile   51(proc =   1) sends points i=   0:   9, j=   5:   6
(PID.TID 0000.0001)                          to points i=   0:   9, j=   5:   6 in tile   47(proc =   1)
(PID.TID 0000.0001) Tile   51(proc =   1) sends points i=  -1:   0, j=  -1:   6
(PID.TID 0000.0001)                          to points i=  -1:   0, j=  -1:   6 in tile   52(proc =   1)
(PID.TID 0000.0001) Tile   51(proc =   1) sends points i=   9:  10, j=  -1:   6
(PID.TID 0000.0001)                          to points i=   9:  10, j=  -1:   6 in tile   50(proc =   1)
(PID.TID 0000.0001) Tile   52(proc =   1) sends points i=  -1:  10, j=  -1:   0
(PID.TID 0000.0001)                          to points i=  -1:  10, j=  -1:   0 in tile   56(proc =   1)
(PID.TID 0000.0001) Tile   52(proc =   1) sends points i=   0:   9, j=   5:   6
(PID.TID 0000.0001)                          to points i=   0:   9, j=   5:   6 in tile   48(proc =   1)
(PID.TID 0000.0001) Tile   52(proc =   1) sends points i=  31:  32, j=  30:  23
(PID.TID 0000.0001)                          to points i=   3:  10, j=  -1:   0 in tile   98(proc =   1)
(PID.TID 0000.0001) Tile   52(proc =   1) sends points i=   9:  10, j=  -1:   6
(PID.TID 0000.0001)                          to points i=   9:  10, j=  -1:   6 in tile   51(proc =   1)
(PID.TID 0000.0001) Tile   53(proc =   1) sends points i=  -1:  10, j=  -1:   0
(PID.TID 0000.0001)                          to points i=  -1:  10, j=  -1:   0 in tile   57(proc =   1)
(PID.TID 0000.0001) Tile   53(proc =   1) sends points i=   0:   9, j=   5:   6
(PID.TID 0000.0001)                          to points i=   0:   9, j=   5:   6 in tile   49(proc =   1)
(PID.TID 0000.0001) Tile   53(proc =   1) sends points i=  -1:   0, j=  -1:   6
(PID.TID 0000.0001)                          to points i=  -1:   0, j=  -1:   6 in tile   54(proc =   1)
(PID.TID 0000.0001) Tile   53(proc =   1) sends points i= -23: -22, j=  -1:   6
(PID.TID 0000.0001)                          to points i=   9:  10, j=  -1:   6 in tile   24(proc =   1)
(PID.TID 0000.0001) Tile   54(proc =   1) sends points i=  -1:  10, j=  -1:   0
(PID.TID 0000.0001)                          to points i=  -1:  10, j=  -1:   0 in tile   58(proc =   1)
(PID.TID 0000.0001) Tile   54(proc =   1) sends points i=   0:   9, j=   5:   6
(PID.TID 0000.0001)                          to points i=   0:   9, j=   5:   6 in tile   50(proc =   1)
(PID.TID 0000.0001) Tile   54(proc =   1) sends points i=  -1:   0, j=  -1:   6
(PID.TID 0000.0001)                          to points i=  -1:   0, j=  -1:   6 in tile   55(proc =   1)
(PID.TID 0000.0001) Tile   54(proc =   1) sends points i=   9:  10, j=  -1:   6
(PID.TID 0000.0001)                          to points i=   9:  10, j=  -1:   6 in tile   53(proc =   1)
(PID.TID 0000.0001) Tile   55(proc =   1) sends points i=  -1:  10, j=  -1:   0
(PID.TID 0000.0001)                          to points i=  -1:  10, j=  -1:   0 in tile   59(proc =   1)
(PID.TID 0000.0001) Tile   55(proc =   1) sends points i=   0:   9, j=   5:   6
(PID.TID 0000.0001)                          to points i=   0:   9, j=   5:   6 in tile   51(proc =   1)
(PID.TID 0000.0001) Tile   55(proc =   1) sends points i=  -1:   0, j=  -1:   6
(PID.TID 0000.0001)                          to points i=  -1:   0, j=  -1:   6 in tile   56(proc =   1)
(PID.TID 0000.0001) Tile   55(proc =   1) sends points i=   9:  10, j=  -1:   6
(PID.TID 0000.0001)                          to points i=   9:  10, j=  -1:   6 in tile   54(proc =   1)
(PID.TID 0000.0001) Tile   56(proc =   1) sends points i=  -1:  10, j=  -1:   0
(PID.TID 0000.0001)                          to points i=  -1:  10, j=  -1:   0 in tile   60(proc =   1)
(PID.TID 0000.0001) Tile   56(proc =   1) sends points i=   0:   9, j=   5:   6
(PID.TID 0000.0001)                          to points i=   0:   9, j=   5:   6 in tile   52(proc =   1)
(PID.TID 0000.0001) Tile   56(proc =   1) sends points i=  31:  32, j=  34:  27
(PID.TID 0000.0001)                          to points i=  -1:   6, j=  -1:   0 in tile   98(proc =   1)
(PID.TID 0000.0001) Tile   56(proc =   1) sends points i=   9:  10, j=  -1:   6
(PID.TID 0000.0001)                          to points i=   9:  10, j=  -1:   6 in tile   55(proc =   1)
(PID.TID 0000.0001) Tile   57(proc =   1) sends points i=  -1:  10, j=  -1:   0
(PID.TID 0000.0001)                          to points i=  -1:  10, j=  -1:   0 in tile   61(proc =   1)
(PID.TID 0000.0001) Tile   57(proc =   1) sends points i=   0:   9, j=   5:   6
(PID.TID 0000.0001)                          to points i=   0:   9, j=   5:   6 in tile   53(proc =   1)
(PID.TID 0000.0001) Tile   57(proc =   1) sends points i=  -1:   0, j=  -1:   6
(PID.TID 0000.0001)                          to points i=  -1:   0, j=  -1:   6 in tile   58(proc =   1)
(PID.TID 0000.0001) Tile   57(proc =   1) sends points i= -23: -22, j=  -1:   6
(PID.TID 0000.0001)                          to points i=   9:  10, j=  -1:   6 in tile   28(proc =   1)
(PID.TID 0000.0001) Tile   58(proc =   1) sends points i=  -1:  10, j=  -1:   0
(PID.TID 0000.0001)                          to points i=  -1:  10, j=  -1:   0 in tile   62(proc =   1)
(PID.TID 0000.0001) Tile   58(proc =   1) sends points i=   0:   9, j=   5:   6
(PID.TID 0000.0001)                          to points i=   0:   9, j=   5:   6 in tile   54(proc =   1)
(PID.TID 0000.0001) Tile   58(proc =   1) sends points i=  -1:   0, j=  -1:   6
(PID.TID 0000.0001)                          to points i=  -1:   0, j=  -1:   6 in tile   59(proc =   1)
(PID.TID 0000.0001) Tile   58(proc =   1) sends points i=   9:  10, j=  -1:   6
(PID.TID 0000.0001)                          to points i=   9:  10, j=  -1:   6 in tile   57(proc =   1)
(PID.TID 0000.0001) Tile   59(proc =   1) sends points i=  -1:  10, j=  -1:   0
(PID.TID 0000.0001)                          to points i=  -1:  10, j=  -1:   0 in tile   63(proc =   1)
(PID.TID 0000.0001) Tile   59(proc =   1) sends points i=   0:   9, j=   5:   6
(PID.TID 0000.0001)                          to points i=   0:   9, j=   5:   6 in tile   55(proc =   1)
(PID.TID 0000.0001) Tile   59(proc =   1) sends points i=  -1:   0, j=  -1:   6
(PID.TID 0000.0001)                          to points i=  -1:   0, j=  -1:   6 in tile   60(proc =   1)
(PID.TID 0000.0001) Tile   59(proc =   1) sends points i=   9:  10, j=  -1:   6
(PID.TID 0000.0001)                          to points i=   9:  10, j=  -1:   6 in tile   58(proc =   1)
(PID.TID 0000.0001) Tile   60(proc =   1) sends points i=  -1:  10, j=  -1:   0
(PID.TID 0000.0001)                          to points i=  -1:  10, j=  -1:   0 in tile   64(proc =   1)
(PID.TID 0000.0001) Tile   60(proc =   1) sends points i=   0:   9, j=   5:   6
(PID.TID 0000.0001)                          to points i=   0:   9, j=   5:   6 in tile   56(proc =   1)
(PID.TID 0000.0001) Tile   60(proc =   1) sends points i=  31:  32, j=  30:  23
(PID.TID 0000.0001)                          to points i=   3:  10, j=  -1:   0 in tile   97(proc =   1)
(PID.TID 0000.0001) Tile   60(proc =   1) sends points i=   9:  10, j=  -1:   6
(PID.TID 0000.0001)                          to points i=   9:  10, j=  -1:   6 in tile   59(proc =   1)
(PID.TID 0000.0001) Tile   61(proc =   1) sends points i=  -1:  10, j=  31:  32
(PID.TID 0000.0001)                          to points i=  -1:  10, j=  -1:   0 in tile   65(proc =   1)
(PID.TID 0000.0001) Tile   61(proc =   1) sends points i=   0:   9, j=   5:   6
(PID.TID 0000.0001)                          to points i=   0:   9, j=   5:   6 in tile   57(proc =   1)
(PID.TID 0000.0001) Tile   61(proc =   1) sends points i=  -1:   0, j=  -1:   6
(PID.TID 0000.0001)                          to points i=  -1:   0, j=  -1:   6 in tile   62(proc =   1)
(PID.TID 0000.0001) Tile   61(proc =   1) sends points i= -23: -22, j=  -1:   6
(PID.TID 0000.0001)                          to points i=   9:  10, j=  -1:   6 in tile   32(proc =   1)
(PID.TID 0000.0001) Tile   62(proc =   1) sends points i=  -1:  10, j=  31:  32
(PID.TID 0000.0001)                          to points i=  -1:  10, j=  -1:   0 in tile   66(proc =   1)
(PID.TID 0000.0001) Tile   62(proc =   1) sends points i=   0:   9, j=   5:   6
(PID.TID 0000.0001)                          to points i=   0:   9, j=   5:   6 in tile   58(proc =   1)
(PID.TID 0000.0001) Tile   62(proc =   1) sends points i=  -1:   0, j=  -1:   6
(PID.TID 0000.0001)                          to points i=  -1:   0, j=  -1:   6 in tile   63(proc =   1)
(PID.TID 0000.0001) Tile   62(proc =   1) sends points i=   9:  10, j=  -1:   6
(PID.TID 0000.0001)                          to points i=   9:  10, j=  -1:   6 in tile   61(proc =   1)
(PID.TID 0000.0001) Tile   63(proc =   1) sends points i=  -1:  10, j=  31:  32
(PID.TID 0000.0001)                          to points i=  -1:  10, j=  -1:   0 in tile   67(proc =   1)
(PID.TID 0000.0001) Tile   63(proc =   1) sends points i=   0:   9, j=   5:   6
(PID.TID 0000.0001)                          to points i=   0:   9, j=   5:   6 in tile   59(proc =   1)
(PID.TID 0000.0001) Tile   63(proc =   1) sends points i=  -1:   0, j=  -1:   6
(PID.TID 0000.0001)                          to points i=  -1:   0, j=  -1:   6 in tile   64(proc =   1)
(PID.TID 0000.0001) Tile   63(proc =   1) sends points i=   9:  10, j=  -1:   6
(PID.TID 0000.0001)                          to points i=   9:  10, j=  -1:   6 in tile   62(proc =   1)
(PID.TID 0000.0001) Tile   64(proc =   1) sends points i=  -1:  10, j=  31:  32
(PID.TID 0000.0001)                          to points i=  -1:  10, j=  -1:   0 in tile   68(proc =   1)
(PID.TID 0000.0001) Tile   64(proc =   1) sends points i=   0:   9, j=   5:   6
(PID.TID 0000.0001)                          to points i=   0:   9, j=   5:   6 in tile   60(proc =   1)
(PID.TID 0000.0001) Tile   64(proc =   1) sends points i=  31:  32, j=  34:  27
(PID.TID 0000.0001)                          to points i=  -1:   6, j=  -1:   0 in tile   97(proc =   1)
(PID.TID 0000.0001) Tile   64(proc =   1) sends points i=   9:  10, j=  -1:   6
(PID.TID 0000.0001)                          to points i=   9:  10, j=  -1:   6 in tile   63(proc =   1)
(PID.TID 0000.0001) Tile   65(proc =   1) sends points i=  -1:  10, j=  -1:   0
(PID.TID 0000.0001)                          to points i=  -1:  10, j=  -1:   0 in tile   69(proc =   1)
(PID.TID 0000.0001) Tile   65(proc =   1) sends points i=  -1:  10, j= -27: -26
(PID.TID 0000.0001)                          to points i=  -1:  10, j=   5:   6 in tile   61(proc =   1)
(PID.TID 0000.0001) Tile   65(proc =   1) sends points i=  -1:   0, j=  -1:   6
(PID.TID 0000.0001)                          to points i=  -1:   0, j=  -1:   6 in tile   66(proc =   1)
(PID.TID 0000.0001) Tile   65(proc =   1) sends points i= -27: -26, j=  30:  23
(PID.TID 0000.0001)                          to points i=   3:  10, j=   5:   6 in tile   32(proc =   1)
(PID.TID 0000.0001) Tile   66(proc =   1) sends points i=  -1:  10, j=  -1:   0
(PID.TID 0000.0001)                          to points i=  -1:  10, j=  -1:   0 in tile   70(proc =   1)
(PID.TID 0000.0001) Tile   66(proc =   1) sends points i=  -1:  10, j= -27: -26
(PID.TID 0000.0001)                          to points i=  -1:  10, j=   5:   6 in tile   62(proc =   1)
(PID.TID 0000.0001) Tile   66(proc =   1) sends points i=  -1:   0, j=  -1:   6
(PID.TID 0000.0001)                          to points i=  -1:   0, j=  -1:   6 in tile   67(proc =   1)
(PID.TID 0000.0001) Tile   66(proc =   1) sends points i=   9:  10, j=  -1:   6
(PID.TID 0000.0001)                          to points i=   9:  10, j=  -1:   6 in tile   65(proc =   1)
(PID.TID 0000.0001) Tile   67(proc =   1) sends points i=  -1:  10, j=  -1:   0
(PID.TID 0000.0001)                          to points i=  -1:  10, j=  -1:   0 in tile   71(proc =   1)
(PID.TID 0000.0001) Tile   67(proc =   1) sends points i=  -1:  10, j= -27: -26
(PID.TID 0000.0001)                          to points i=  -1:  10, j=   5:   6 in tile   63(proc =   1)
(PID.TID 0000.0001) Tile   67(proc =   1) sends points i=  -1:   0, j=  -1:   6
(PID.TID 0000.0001)                          to points i=  -1:   0, j=  -1:   6 in tile   68(proc =   1)
(PID.TID 0000.0001) Tile   67(proc =   1) sends points i=   9:  10, j=  -1:   6
(PID.TID 0000.0001)                          to points i=   9:  10, j=  -1:   6 in tile   66(proc =   1)
(PID.TID 0000.0001) Tile   68(proc =   1) sends points i=  -1:  10, j=  -1:   0
(PID.TID 0000.0001)                          to points i=  -1:  10, j=  -1:   0 in tile   72(proc =   1)
(PID.TID 0000.0001) Tile   68(proc =   1) sends points i=  -1:  10, j= -27: -26
(PID.TID 0000.0001)                          to points i=  -1:  10, j=   5:   6 in tile   64(proc =   1)
(PID.TID 0000.0001) Tile   68(proc =   1) sends points i=  31:  32, j=  -1:   6
(PID.TID 0000.0001)                          to points i=  -1:   0, j=  -1:   6 in tile   97(proc =   1)
(PID.TID 0000.0001) Tile   68(proc =   1) sends points i=   9:  10, j=  -1:   6
(PID.TID 0000.0001)                          to points i=   9:  10, j=  -1:   6 in tile   67(proc =   1)
(PID.TID 0000.0001) Tile   69(proc =   1) sends points i=  -1:  10, j=  -1:   0
(PID.TID 0000.0001)                          to points i=  -1:  10, j=  -1:   0 in tile   73(proc =   1)
(PID.TID 0000.0001) Tile   69(proc =   1) sends points i=   0:   9, j=   5:   6
(PID.TID 0000.0001)                          to points i=   0:   9, j=   5:   6 in tile   65(proc =   1)
(PID.TID 0000.0001) Tile   69(proc =   1) sends points i=  -1:   0, j=  -1:   6
(PID.TID 0000.0001)                          to points i=  -1:   0, j=  -1:   6 in tile   70(proc =   1)
(PID.TID 0000.0001) Tile   69(proc =   1) sends points i= -27: -26, j=  34:  27
(PID.TID 0000.0001)                          to points i=  -1:   6, j=   5:   6 in tile   32(proc =   1)
(PID.TID 0000.0001) Tile   70(proc =   1) sends points i=  -1:  10, j=  -1:   0
(PID.TID 0000.0001)                          to points i=  -1:  10, j=  -1:   0 in tile   74(proc =   1)
(PID.TID 0000.0001) Tile   70(proc =   1) sends points i=   0:   9, j=   5:   6
(PID.TID 0000.0001)                          to points i=   0:   9, j=   5:   6 in tile   66(proc =   1)
(PID.TID 0000.0001) Tile   70(proc =   1) sends points i=  -1:   0, j=  -1:   6
(PID.TID 0000.0001)                          to points i=  -1:   0, j=  -1:   6 in tile   71(proc =   1)
(PID.TID 0000.0001) Tile   70(proc =   1) sends points i=   9:  10, j=  -1:   6
(PID.TID 0000.0001)                          to points i=   9:  10, j=  -1:   6 in tile   69(proc =   1)
(PID.TID 0000.0001) Tile   71(proc =   1) sends points i=  -1:  10, j=  -1:   0
(PID.TID 0000.0001)                          to points i=  -1:  10, j=  -1:   0 in tile   75(proc =   1)
(PID.TID 0000.0001) Tile   71(proc =   1) sends points i=   0:   9, j=   5:   6
(PID.TID 0000.0001)                          to points i=   0:   9, j=   5:   6 in tile   67(proc =   1)
(PID.TID 0000.0001) Tile   71(proc =   1) sends points i=  -1:   0, j=  -1:   6
(PID.TID 0000.0001)                          to points i=  -1:   0, j=  -1:   6 in tile   72(proc =   1)
(PID.TID 0000.0001) Tile   71(proc =   1) sends points i=   9:  10, j=  -1:   6
(PID.TID 0000.0001)                          to points i=   9:  10, j=  -1:   6 in tile   70(proc =   1)
(PID.TID 0000.0001) Tile   72(proc =   1) sends points i=  -1:  10, j=  -1:   0
(PID.TID 0000.0001)                          to points i=  -1:  10, j=  -1:   0 in tile   76(proc =   1)
(PID.TID 0000.0001) Tile   72(proc =   1) sends points i=   0:   9, j=   5:   6
(PID.TID 0000.0001)                          to points i=   0:   9, j=   5:   6 in tile   68(proc =   1)
(PID.TID 0000.0001) Tile   72(proc =   1) sends points i=  31:  32, j=  -1:   6
(PID.TID 0000.0001)                          to points i=  -1:   0, j=  -1:   6 in tile  101(proc =   1)
(PID.TID 0000.0001) Tile   72(proc =   1) sends points i=   9:  10, j=  -1:   6
(PID.TID 0000.0001)                          to points i=   9:  10, j=  -1:   6 in tile   71(proc =   1)
(PID.TID 0000.0001) Tile   73(proc =   1) sends points i=  -1:  10, j=  -1:   0
(PID.TID 0000.0001)                          to points i=  -1:  10, j=  -1:   0 in tile   77(proc =   1)
(PID.TID 0000.0001) Tile   73(proc =   1) sends points i=   0:   9, j=   5:   6
(PID.TID 0000.0001)                          to points i=   0:   9, j=   5:   6 in tile   69(proc =   1)
(PID.TID 0000.0001) Tile   73(proc =   1) sends points i=  -1:   0, j=  -1:   6
(PID.TID 0000.0001)                          to points i=  -1:   0, j=  -1:   6 in tile   74(proc =   1)
(PID.TID 0000.0001) Tile   73(proc =   1) sends points i= -27: -26, j=  30:  23
(PID.TID 0000.0001)                          to points i=   3:  10, j=   5:   6 in tile   31(proc =   1)
(PID.TID 0000.0001) Tile   74(proc =   1) sends points i=  -1:  10, j=  -1:   0
(PID.TID 0000.0001)                          to points i=  -1:  10, j=  -1:   0 in tile   78(proc =   1)
(PID.TID 0000.0001) Tile   74(proc =   1) sends points i=   0:   9, j=   5:   6
(PID.TID 0000.0001)                          to points i=   0:   9, j=   5:   6 in tile   70(proc =   1)
(PID.TID 0000.0001) Tile   74(proc =   1) sends points i=  -1:   0, j=  -1:   6
(PID.TID 0000.0001)                          to points i=  -1:   0, j=  -1:   6 in tile   75(proc =   1)
(PID.TID 0000.0001) Tile   74(proc =   1) sends points i=   9:  10, j=  -1:   6
(PID.TID 0000.0001)                          to points i=   9:  10, j=  -1:   6 in tile   73(proc =   1)
(PID.TID 0000.0001) Tile   75(proc =   1) sends points i=  -1:  10, j=  -1:   0
(PID.TID 0000.0001)                          to points i=  -1:  10, j=  -1:   0 in tile   79(proc =   1)
(PID.TID 0000.0001) Tile   75(proc =   1) sends points i=   0:   9, j=   5:   6
(PID.TID 0000.0001)                          to points i=   0:   9, j=   5:   6 in tile   71(proc =   1)
(PID.TID 0000.0001) Tile   75(proc =   1) sends points i=  -1:   0, j=  -1:   6
(PID.TID 0000.0001)                          to points i=  -1:   0, j=  -1:   6 in tile   76(proc =   1)
(PID.TID 0000.0001) Tile   75(proc =   1) sends points i=   9:  10, j=  -1:   6
(PID.TID 0000.0001)                          to points i=   9:  10, j=  -1:   6 in tile   74(proc =   1)
(PID.TID 0000.0001) Tile   76(proc =   1) sends points i=  -1:  10, j=  -1:   0
(PID.TID 0000.0001)                          to points i=  -1:  10, j=  -1:   0 in tile   80(proc =   1)
(PID.TID 0000.0001) Tile   76(proc =   1) sends points i=   0:   9, j=   5:   6
(PID.TID 0000.0001)                          to points i=   0:   9, j=   5:   6 in tile   72(proc =   1)
(PID.TID 0000.0001) Tile   76(proc =   1) sends points i=  31:  32, j=  -1:   6
(PID.TID 0000.0001)                          to points i=  -1:   0, j=  -1:   6 in tile  105(proc =   1)
(PID.TID 0000.0001) Tile   76(proc =   1) sends points i=   9:  10, j=  -1:   6
(PID.TID 0000.0001)                          to points i=   9:  10, j=  -1:   6 in tile   75(proc =   1)
(PID.TID 0000.0001) Tile   77(proc =   1) sends points i=  -1:  10, j=  -1:   0
(PID.TID 0000.0001)                          to points i=  -1:  10, j=  -1:   0 in tile   81(proc =   1)
(PID.TID 0000.0001) Tile   77(proc =   1) sends points i=   0:   9, j=   5:   6
(PID.TID 0000.0001)                          to points i=   0:   9, j=   5:   6 in tile   73(proc =   1)
(PID.TID 0000.0001) Tile   77(proc =   1) sends points i=  -1:   0, j=  -1:   6
(PID.TID 0000.0001)                          to points i=  -1:   0, j=  -1:   6 in tile   78(proc =   1)
(PID.TID 0000.0001) Tile   77(proc =   1) sends points i= -27: -26, j=  34:  27
(PID.TID 0000.0001)                          to points i=  -1:   6, j=   5:   6 in tile   31(proc =   1)
(PID.TID 0000.0001) Tile   78(proc =   1) sends points i=  -1:  10, j=  -1:   0
(PID.TID 0000.0001)                          to points i=  -1:  10, j=  -1:   0 in tile   82(proc =   1)
(PID.TID 0000.0001) Tile   78(proc =   1) sends points i=   0:   9, j=   5:   6
(PID.TID 0000.0001)                          to points i=   0:   9, j=   5:   6 in tile   74(proc =   1)
(PID.TID 0000.0001) Tile   78(proc =   1) sends points i=  -1:   0, j=  -1:   6
(PID.TID 0000.0001)                          to points i=  -1:   0, j=  -1:   6 in tile   79(proc =   1)
(PID.TID 0000.0001) Tile   78(proc =   1) sends points i=   9:  10, j=  -1:   6
(PID.TID 0000.0001)                          to points i=   9:  10, j=  -1:   6 in tile   77(proc =   1)
(PID.TID 0000.0001) Tile   79(proc =   1) sends points i=  -1:  10, j=  -1:   0
(PID.TID 0000.0001)                          to points i=  -1:  10, j=  -1:   0 in tile   83(proc =   1)
(PID.TID 0000.0001) Tile   79(proc =   1) sends points i=   0:   9, j=   5:   6
(PID.TID 0000.0001)                          to points i=   0:   9, j=   5:   6 in tile   75(proc =   1)
(PID.TID 0000.0001) Tile   79(proc =   1) sends points i=  -1:   0, j=  -1:   6
(PID.TID 0000.0001)                          to points i=  -1:   0, j=  -1:   6 in tile   80(proc =   1)
(PID.TID 0000.0001) Tile   79(proc =   1) sends points i=   9:  10, j=  -1:   6
(PID.TID 0000.0001)                          to points i=   9:  10, j=  -1:   6 in tile   78(proc =   1)
(PID.TID 0000.0001) Tile   80(proc =   1) sends points i=  -1:  10, j=  -1:   0
(PID.TID 0000.0001)                          to points i=  -1:  10, j=  -1:   0 in tile   84(proc =   1)
(PID.TID 0000.0001) Tile   80(proc =   1) sends points i=   0:   9, j=   5:   6
(PID.TID 0000.0001)                          to points i=   0:   9, j=   5:   6 in tile   76(proc =   1)
(PID.TID 0000.0001) Tile   80(proc =   1) sends points i=  31:  32, j=  -1:   6
(PID.TID 0000.0001)                          to points i=  -1:   0, j=  -1:   6 in tile  109(proc =   1)
(PID.TID 0000.0001) Tile   80(proc =   1) sends points i=   9:  10, j=  -1:   6
(PID.TID 0000.0001)                          to points i=   9:  10, j=  -1:   6 in tile   79(proc =   1)
(PID.TID 0000.0001) Tile   81(proc =   1) sends points i=  -1:  10, j=  -1:   0
(PID.TID 0000.0001)                          to points i=  -1:  10, j=  -1:   0 in tile   85(proc =   1)
(PID.TID 0000.0001) Tile   81(proc =   1) sends points i=   0:   9, j=   5:   6
(PID.TID 0000.0001)                          to points i=   0:   9, j=   5:   6 in tile   77(proc =   1)
(PID.TID 0000.0001) Tile   81(proc =   1) sends points i=  -1:   0, j=  -1:   6
(PID.TID 0000.0001)                          to points i=  -1:   0, j=  -1:   6 in tile   82(proc =   1)
(PID.TID 0000.0001) Tile   81(proc =   1) sends points i= -27: -26, j=  30:  23
(PID.TID 0000.0001)                          to points i=   3:  10, j=   5:   6 in tile   30(proc =   1)
(PID.TID 0000.0001) Tile   82(proc =   1) sends points i=  -1:  10, j=  -1:   0
(PID.TID 0000.0001)                          to points i=  -1:  10, j=  -1:   0 in tile   86(proc =   1)
(PID.TID 0000.0001) Tile   82(proc =   1) sends points i=   0:   9, j=   5:   6
(PID.TID 0000.0001)                          to points i=   0:   9, j=   5:   6 in tile   78(proc =   1)
(PID.TID 0000.0001) Tile   82(proc =   1) sends points i=  -1:   0, j=  -1:   6
(PID.TID 0000.0001)                          to points i=  -1:   0, j=  -1:   6 in tile   83(proc =   1)
(PID.TID 0000.0001) Tile   82(proc =   1) sends points i=   9:  10, j=  -1:   6
(PID.TID 0000.0001)                          to points i=   9:  10, j=  -1:   6 in tile   81(proc =   1)
(PID.TID 0000.0001) Tile   83(proc =   1) sends points i=  -1:  10, j=  -1:   0
(PID.TID 0000.0001)                          to points i=  -1:  10, j=  -1:   0 in tile   87(proc =   1)
(PID.TID 0000.0001) Tile   83(proc =   1) sends points i=   0:   9, j=   5:   6
(PID.TID 0000.0001)                          to points i=   0:   9, j=   5:   6 in tile   79(proc =   1)
(PID.TID 0000.0001) Tile   83(proc =   1) sends points i=  -1:   0, j=  -1:   6
(PID.TID 0000.0001)                          to points i=  -1:   0, j=  -1:   6 in tile   84(proc =   1)
(PID.TID 0000.0001) Tile   83(proc =   1) sends points i=   9:  10, j=  -1:   6
(PID.TID 0000.0001)                          to points i=   9:  10, j=  -1:   6 in tile   82(proc =   1)
(PID.TID 0000.0001) Tile   84(proc =   1) sends points i=  -1:  10, j=  -1:   0
(PID.TID 0000.0001)                          to points i=  -1:  10, j=  -1:   0 in tile   88(proc =   1)
(PID.TID 0000.0001) Tile   84(proc =   1) sends points i=   0:   9, j=   5:   6
(PID.TID 0000.0001)                          to points i=   0:   9, j=   5:   6 in tile   80(proc =   1)
(PID.TID 0000.0001) Tile   84(proc =   1) sends points i=  31:  32, j=  -1:   6
(PID.TID 0000.0001)                          to points i=  -1:   0, j=  -1:   6 in tile  113(proc =   1)
(PID.TID 0000.0001) Tile   84(proc =   1) sends points i=   9:  10, j=  -1:   6
(PID.TID 0000.0001)                          to points i=   9:  10, j=  -1:   6 in tile   83(proc =   1)
(PID.TID 0000.0001) Tile   85(proc =   1) sends points i=  -1:  10, j=  -1:   0
(PID.TID 0000.0001)                          to points i=  -1:  10, j=  -1:   0 in tile   89(proc =   1)
(PID.TID 0000.0001) Tile   85(proc =   1) sends points i=   0:   9, j=   5:   6
(PID.TID 0000.0001)                          to points i=   0:   9, j=   5:   6 in tile   81(proc =   1)
(PID.TID 0000.0001) Tile   85(proc =   1) sends points i=  -1:   0, j=  -1:   6
(PID.TID 0000.0001)                          to points i=  -1:   0, j=  -1:   6 in tile   86(proc =   1)
(PID.TID 0000.0001) Tile   85(proc =   1) sends points i= -27: -26, j=  34:  27
(PID.TID 0000.0001)                          to points i=  -1:   6, j=   5:   6 in tile   30(proc =   1)
(PID.TID 0000.0001) Tile   86(proc =   1) sends points i=  -1:  10, j=  -1:   0
(PID.TID 0000.0001)                          to points i=  -1:  10, j=  -1:   0 in tile   90(proc =   1)
(PID.TID 0000.0001) Tile   86(proc =   1) sends points i=   0:   9, j=   5:   6
(PID.TID 0000.0001)                          to points i=   0:   9, j=   5:   6 in tile   82(proc =   1)
(PID.TID 0000.0001) Tile   86(proc =   1) sends points i=  -1:   0, j=  -1:   6
(PID.TID 0000.0001)                          to points i=  -1:   0, j=  -1:   6 in tile   87(proc =   1)
(PID.TID 0000.0001) Tile   86(proc =   1) sends points i=   9:  10, j=  -1:   6
(PID.TID 0000.0001)                          to points i=   9:  10, j=  -1:   6 in tile   85(proc =   1)
(PID.TID 0000.0001) Tile   87(proc =   1) sends points i=  -1:  10, j=  -1:   0
(PID.TID 0000.0001)                          to points i=  -1:  10, j=  -1:   0 in tile   91(proc =   1)
(PID.TID 0000.0001) Tile   87(proc =   1) sends points i=   0:   9, j=   5:   6
(PID.TID 0000.0001)                          to points i=   0:   9, j=   5:   6 in tile   83(proc =   1)
(PID.TID 0000.0001) Tile   87(proc =   1) sends points i=  -1:   0, j=  -1:   6
(PID.TID 0000.0001)                          to points i=  -1:   0, j=  -1:   6 in tile   88(proc =   1)
(PID.TID 0000.0001) Tile   87(proc =   1) sends points i=   9:  10, j=  -1:   6
(PID.TID 0000.0001)                          to points i=   9:  10, j=  -1:   6 in tile   86(proc =   1)
(PID.TID 0000.0001) Tile   88(proc =   1) sends points i=  -1:  10, j=  -1:   0
(PID.TID 0000.0001)                          to points i=  -1:  10, j=  -1:   0 in tile   92(proc =   1)
(PID.TID 0000.0001) Tile   88(proc =   1) sends points i=   0:   9, j=   5:   6
(PID.TID 0000.0001)                          to points i=   0:   9, j=   5:   6 in tile   84(proc =   1)
(PID.TID 0000.0001) Tile   88(proc =   1) sends points i=  31:  32, j=  -1:   6
(PID.TID 0000.0001)                          to points i=  -1:   0, j=  -1:   6 in tile  117(proc =   1)
(PID.TID 0000.0001) Tile   88(proc =   1) sends points i=   9:  10, j=  -1:   6
(PID.TID 0000.0001)                          to points i=   9:  10, j=  -1:   6 in tile   87(proc =   1)
(PID.TID 0000.0001) Tile   89(proc =   1) sends points i=  -1:  10, j=  -1:   0
(PID.TID 0000.0001)                          to points i=  -1:  10, j=  -1:   0 in tile   93(proc =   1)
(PID.TID 0000.0001) Tile   89(proc =   1) sends points i=   0:   9, j=   5:   6
(PID.TID 0000.0001)                          to points i=   0:   9, j=   5:   6 in tile   85(proc =   1)
(PID.TID 0000.0001) Tile   89(proc =   1) sends points i=  -1:   0, j=  -1:   6
(PID.TID 0000.0001)                          to points i=  -1:   0, j=  -1:   6 in tile   90(proc =   1)
(PID.TID 0000.0001) Tile   89(proc =   1) sends points i= -27: -26, j=  30:  23
(PID.TID 0000.0001)                          to points i=   3:  10, j=   5:   6 in tile   29(proc =   1)
(PID.TID 0000.0001) Tile   90(proc =   1) sends points i=  -1:  10, j=  -1:   0
(PID.TID 0000.0001)                          to points i=  -1:  10, j=  -1:   0 in tile   94(proc =   1)
(PID.TID 0000.0001) Tile   90(proc =   1) sends points i=   0:   9, j=   5:   6
(PID.TID 0000.0001)                          to points i=   0:   9, j=   5:   6 in tile   86(proc =   1)
(PID.TID 0000.0001) Tile   90(proc =   1) sends points i=  -1:   0, j=  -1:   6
(PID.TID 0000.0001)                          to points i=  -1:   0, j=  -1:   6 in tile   91(proc =   1)
(PID.TID 0000.0001) Tile   90(proc =   1) sends points i=   9:  10, j=  -1:   6
(PID.TID 0000.0001)                          to points i=   9:  10, j=  -1:   6 in tile   89(proc =   1)
(PID.TID 0000.0001) Tile   91(proc =   1) sends points i=  -1:  10, j=  -1:   0
(PID.TID 0000.0001)                          to points i=  -1:  10, j=  -1:   0 in tile   95(proc =   1)
(PID.TID 0000.0001) Tile   91(proc =   1) sends points i=   0:   9, j=   5:   6
(PID.TID 0000.0001)                          to points i=   0:   9, j=   5:   6 in tile   87(proc =   1)
(PID.TID 0000.0001) Tile   91(proc =   1) sends points i=  -1:   0, j=  -1:   6
(PID.TID 0000.0001)                          to points i=  -1:   0, j=  -1:   6 in tile   92(proc =   1)
(PID.TID 0000.0001) Tile   91(proc =   1) sends points i=   9:  10, j=  -1:   6
(PID.TID 0000.0001)                          to points i=   9:  10, j=  -1:   6 in tile   90(proc =   1)
(PID.TID 0000.0001) Tile   92(proc =   1) sends points i=  -1:  10, j=  -1:   0
(PID.TID 0000.0001)                          to points i=  -1:  10, j=  -1:   0 in tile   96(proc =   1)
(PID.TID 0000.0001) Tile   92(proc =   1) sends points i=   0:   9, j=   5:   6
(PID.TID 0000.0001)                          to points i=   0:   9, j=   5:   6 in tile   88(proc =   1)
(PID.TID 0000.0001) Tile   92(proc =   1) sends points i=  31:  32, j=  -1:   6
(PID.TID 0000.0001)                          to points i=  -1:   0, j=  -1:   6 in tile  121(proc =   1)
(PID.TID 0000.0001) Tile   92(proc =   1) sends points i=   9:  10, j=  -1:   6
(PID.TID 0000.0001)                          to points i=   9:  10, j=  -1:   6 in tile   91(proc =   1)
(PID.TID 0000.0001) Tile   93(proc =   1) sends points i=  34:  27, j=  31:  32
(PID.TID 0000.0001)                          to points i=  -1:   0, j=  -1:   6 in tile  153(proc =   1)
(PID.TID 0000.0001) Tile   93(proc =   1) sends points i=  34:  27, j=  31:  32
(PID.TID 0000.0001)                          to points i=  -1:   0, j=  -1:   6 in tile  157(proc =   1)
(PID.TID 0000.0001) Tile   93(proc =   1) sends points i=   0:   9, j=   5:   6
(PID.TID 0000.0001)                          to points i=   0:   9, j=   5:   6 in tile   89(proc =   1)
(PID.TID 0000.0001) Tile   93(proc =   1) sends points i=  -1:   0, j=  -1:   6
(PID.TID 0000.0001)                          to points i=  -1:   0, j=  -1:   6 in tile   94(proc =   1)
(PID.TID 0000.0001) Tile   93(proc =   1) sends points i= -27: -26, j=  34:  27
(PID.TID 0000.0001)                          to points i=  -1:   6, j=   5:   6 in tile   29(proc =   1)
(PID.TID 0000.0001) Tile   94(proc =   1) sends points i=  34:  27, j=  31:  32
(PID.TID 0000.0001)                          to points i=  -1:   0, j=  -1:   6 in tile  145(proc =   1)
(PID.TID 0000.0001) Tile   94(proc =   1) sends points i=  34:  27, j=  31:  32
(PID.TID 0000.0001)                          to points i=  -1:   0, j=  -1:   6 in tile  149(proc =   1)
(PID.TID 0000.0001) Tile   94(proc =   1) sends points i=   0:   9, j=   5:   6
(PID.TID 0000.0001)                          to points i=   0:   9, j=   5:   6 in tile   90(proc =   1)
(PID.TID 0000.0001) Tile   94(proc =   1) sends points i=  -1:   0, j=  -1:   6
(PID.TID 0000.0001)                          to points i=  -1:   0, j=  -1:   6 in tile   95(proc =   1)
(PID.TID 0000.0001) Tile   94(proc =   1) sends points i=   9:  10, j=  -1:   6
(PID.TID 0000.0001)                          to points i=   9:  10, j=  -1:   6 in tile   93(proc =   1)
(PID.TID 0000.0001) Tile   95(proc =   1) sends points i=  34:  27, j=  31:  32
(PID.TID 0000.0001)                          to points i=  -1:   0, j=  -1:   6 in tile  137(proc =   1)
(PID.TID 0000.0001) Tile   95(proc =   1) sends points i=  34:  27, j=  31:  32
(PID.TID 0000.0001)                          to points i=  -1:   0, j=  -1:   6 in tile  141(proc =   1)
(PID.TID 0000.0001) Tile   95(proc =   1) sends points i=   0:   9, j=   5:   6
(PID.TID 0000.0001)                          to points i=   0:   9, j=   5:   6 in tile   91(proc =   1)
(PID.TID 0000.0001) Tile   95(proc =   1) sends points i=  -1:   0, j=  -1:   6
(PID.TID 0000.0001)                          to points i=  -1:   0, j=  -1:   6 in tile   96(proc =   1)
(PID.TID 0000.0001) Tile   95(proc =   1) sends points i=   9:  10, j=  -1:   6
(PID.TID 0000.0001)                          to points i=   9:  10, j=  -1:   6 in tile   94(proc =   1)
(PID.TID 0000.0001) Tile   96(proc =   1) sends points i=  34:  27, j=  31:  32
(PID.TID 0000.0001)                          to points i=  -1:   0, j=  -1:   6 in tile  129(proc =   1)
(PID.TID 0000.0001) Tile   96(proc =   1) sends points i=  34:  27, j=  31:  32
(PID.TID 0000.0001)                          to points i=  -1:   0, j=  -1:   6 in tile  133(proc =   1)
(PID.TID 0000.0001) Tile   96(proc =   1) sends points i=   0:   9, j=   5:   6
(PID.TID 0000.0001)                          to points i=   0:   9, j=   5:   6 in tile   92(proc =   1)
(PID.TID 0000.0001) Tile   96(proc =   1) sends points i=  31:  32, j=  -1:   6
(PID.TID 0000.0001)                          to points i=  -1:   0, j=  -1:   6 in tile  125(proc =   1)
(PID.TID 0000.0001) Tile   96(proc =   1) sends points i=   9:  10, j=  -1:   6
(PID.TID 0000.0001)                          to points i=   9:  10, j=  -1:   6 in tile   95(proc =   1)
(PID.TID 0000.0001) Tile   97(proc =   1) sends points i=  -1:  10, j=  -1:   0
(PID.TID 0000.0001)                          to points i=  -1:  10, j=  -1:   0 in tile  101(proc =   1)
(PID.TID 0000.0001) Tile   97(proc =   1) sends points i=  34:  27, j= -23: -22
(PID.TID 0000.0001)                          to points i=   9:  10, j=  -1:   6 in tile   60(proc =   1)
(PID.TID 0000.0001) Tile   97(proc =   1) sends points i=  34:  27, j= -23: -22
(PID.TID 0000.0001)                          to points i=   9:  10, j=  -1:   6 in tile   64(proc =   1)
(PID.TID 0000.0001) Tile   97(proc =   1) sends points i=  -1:   0, j=  -1:   6
(PID.TID 0000.0001)                          to points i=  -1:   0, j=  -1:   6 in tile   98(proc =   1)
(PID.TID 0000.0001) Tile   97(proc =   1) sends points i= -23: -22, j=  -1:   6
(PID.TID 0000.0001)                          to points i=   9:  10, j=  -1:   6 in tile   68(proc =   1)
(PID.TID 0000.0001) Tile   98(proc =   1) sends points i=  -1:  10, j=  -1:   0
(PID.TID 0000.0001)                          to points i=  -1:  10, j=  -1:   0 in tile  102(proc =   1)
(PID.TID 0000.0001) Tile   98(proc =   1) sends points i=  34:  27, j= -23: -22
(PID.TID 0000.0001)                          to points i=   9:  10, j=  -1:   6 in tile   52(proc =   1)
(PID.TID 0000.0001) Tile   98(proc =   1) sends points i=  34:  27, j= -23: -22
(PID.TID 0000.0001)                          to points i=   9:  10, j=  -1:   6 in tile   56(proc =   1)
(PID.TID 0000.0001) Tile   98(proc =   1) sends points i=  -1:   0, j=  -1:   6
(PID.TID 0000.0001)                          to points i=  -1:   0, j=  -1:   6 in tile   99(proc =   1)
(PID.TID 0000.0001) Tile   98(proc =   1) sends points i=   9:  10, j=  -1:   6
(PID.TID 0000.0001)                          to points i=   9:  10, j=  -1:   6 in tile   97(proc =   1)
(PID.TID 0000.0001) Tile   99(proc =   1) sends points i=  -1:  10, j=  -1:   0
(PID.TID 0000.0001)                          to points i=  -1:  10, j=  -1:   0 in tile  103(proc =   1)
(PID.TID 0000.0001) Tile   99(proc =   1) sends points i=  34:  27, j= -23: -22
(PID.TID 0000.0001)                          to points i=   9:  10, j=  -1:   6 in tile   44(proc =   1)
(PID.TID 0000.0001) Tile   99(proc =   1) sends points i=  34:  27, j= -23: -22
(PID.TID 0000.0001)                          to points i=   9:  10, j=  -1:   6 in tile   48(proc =   1)
(PID.TID 0000.0001) Tile   99(proc =   1) sends points i=  -1:   0, j=  -1:   6
(PID.TID 0000.0001)                          to points i=  -1:   0, j=  -1:   6 in tile  100(proc =   1)
(PID.TID 0000.0001) Tile   99(proc =   1) sends points i=   9:  10, j=  -1:   6
(PID.TID 0000.0001)                          to points i=   9:  10, j=  -1:   6 in tile   98(proc =   1)
(PID.TID 0000.0001) Tile  100(proc =   1) sends points i=  -1:  10, j=  -1:   0
(PID.TID 0000.0001)                          to points i=  -1:  10, j=  -1:   0 in tile  104(proc =   1)
(PID.TID 0000.0001) Tile  100(proc =   1) sends points i=  34:  27, j= -23: -22
(PID.TID 0000.0001)                          to points i=   9:  10, j=  -1:   6 in tile   36(proc =   1)
(PID.TID 0000.0001) Tile  100(proc =   1) sends points i=  34:  27, j= -23: -22
(PID.TID 0000.0001)                          to points i=   9:  10, j=  -1:   6 in tile   40(proc =   1)
(PID.TID 0000.0001) Tile  100(proc =   1) sends points i=  31:  32, j=  30:  23
(PID.TID 0000.0001)                          to points i=   3:  10, j=  -1:   0 in tile  164(proc =   1)
(PID.TID 0000.0001) Tile  100(proc =   1) sends points i=   9:  10, j=  -1:   6
(PID.TID 0000.0001)                          to points i=   9:  10, j=  -1:   6 in tile   99(proc =   1)
(PID.TID 0000.0001) Tile  101(proc =   1) sends points i=  -1:  10, j=  -1:   0
(PID.TID 0000.0001)                          to points i=  -1:  10, j=  -1:   0 in tile  105(proc =   1)
(PID.TID 0000.0001) Tile  101(proc =   1) sends points i=   0:   9, j=   5:   6
(PID.TID 0000.0001)                          to points i=   0:   9, j=   5:   6 in tile   97(proc =   1)
(PID.TID 0000.0001) Tile  101(proc =   1) sends points i=  -1:   0, j=  -1:   6
(PID.TID 0000.0001)                          to points i=  -1:   0, j=  -1:   6 in tile  102(proc =   1)
(PID.TID 0000.0001) Tile  101(proc =   1) sends points i= -23: -22, j=  -1:   6
(PID.TID 0000.0001)                          to points i=   9:  10, j=  -1:   6 in tile   72(proc =   1)
(PID.TID 0000.0001) Tile  102(proc =   1) sends points i=  -1:  10, j=  -1:   0
(PID.TID 0000.0001)                          to points i=  -1:  10, j=  -1:   0 in tile  106(proc =   1)
(PID.TID 0000.0001) Tile  102(proc =   1) sends points i=   0:   9, j=   5:   6
(PID.TID 0000.0001)                          to points i=   0:   9, j=   5:   6 in tile   98(proc =   1)
(PID.TID 0000.0001) Tile  102(proc =   1) sends points i=  -1:   0, j=  -1:   6
(PID.TID 0000.0001)                          to points i=  -1:   0, j=  -1:   6 in tile  103(proc =   1)
(PID.TID 0000.0001) Tile  102(proc =   1) sends points i=   9:  10, j=  -1:   6
(PID.TID 0000.0001)                          to points i=   9:  10, j=  -1:   6 in tile  101(proc =   1)
(PID.TID 0000.0001) Tile  103(proc =   1) sends points i=  -1:  10, j=  -1:   0
(PID.TID 0000.0001)                          to points i=  -1:  10, j=  -1:   0 in tile  107(proc =   1)
(PID.TID 0000.0001) Tile  103(proc =   1) sends points i=   0:   9, j=   5:   6
(PID.TID 0000.0001)                          to points i=   0:   9, j=   5:   6 in tile   99(proc =   1)
(PID.TID 0000.0001) Tile  103(proc =   1) sends points i=  -1:   0, j=  -1:   6
(PID.TID 0000.0001)                          to points i=  -1:   0, j=  -1:   6 in tile  104(proc =   1)
(PID.TID 0000.0001) Tile  103(proc =   1) sends points i=   9:  10, j=  -1:   6
(PID.TID 0000.0001)                          to points i=   9:  10, j=  -1:   6 in tile  102(proc =   1)
(PID.TID 0000.0001) Tile  104(proc =   1) sends points i=  -1:  10, j=  -1:   0
(PID.TID 0000.0001)                          to points i=  -1:  10, j=  -1:   0 in tile  108(proc =   1)
(PID.TID 0000.0001) Tile  104(proc =   1) sends points i=   0:   9, j=   5:   6
(PID.TID 0000.0001)                          to points i=   0:   9, j=   5:   6 in tile  100(proc =   1)
(PID.TID 0000.0001) Tile  104(proc =   1) sends points i=  31:  32, j=  34:  27
(PID.TID 0000.0001)                          to points i=  -1:   6, j=  -1:   0 in tile  164(proc =   1)
(PID.TID 0000.0001) Tile  104(proc =   1) sends points i=   9:  10, j=  -1:   6
(PID.TID 0000.0001)                          to points i=   9:  10, j=  -1:   6 in tile  103(proc =   1)
(PID.TID 0000.0001) Tile  105(proc =   1) sends points i=  -1:  10, j=  -1:   0
(PID.TID 0000.0001)                          to points i=  -1:  10, j=  -1:   0 in tile  109(proc =   1)
(PID.TID 0000.0001) Tile  105(proc =   1) sends points i=   0:   9, j=   5:   6
(PID.TID 0000.0001)                          to points i=   0:   9, j=   5:   6 in tile  101(proc =   1)
(PID.TID 0000.0001) Tile  105(proc =   1) sends points i=  -1:   0, j=  -1:   6
(PID.TID 0000.0001)                          to points i=  -1:   0, j=  -1:   6 in tile  106(proc =   1)
(PID.TID 0000.0001) Tile  105(proc =   1) sends points i= -23: -22, j=  -1:   6
(PID.TID 0000.0001)                          to points i=   9:  10, j=  -1:   6 in tile   76(proc =   1)
(PID.TID 0000.0001) Tile  106(proc =   1) sends points i=  -1:  10, j=  -1:   0
(PID.TID 0000.0001)                          to points i=  -1:  10, j=  -1:   0 in tile  110(proc =   1)
(PID.TID 0000.0001) Tile  106(proc =   1) sends points i=   0:   9, j=   5:   6
(PID.TID 0000.0001)                          to points i=   0:   9, j=   5:   6 in tile  102(proc =   1)
(PID.TID 0000.0001) Tile  106(proc =   1) sends points i=  -1:   0, j=  -1:   6
(PID.TID 0000.0001)                          to points i=  -1:   0, j=  -1:   6 in tile  107(proc =   1)
(PID.TID 0000.0001) Tile  106(proc =   1) sends points i=   9:  10, j=  -1:   6
(PID.TID 0000.0001)                          to points i=   9:  10, j=  -1:   6 in tile  105(proc =   1)
(PID.TID 0000.0001) Tile  107(proc =   1) sends points i=  -1:  10, j=  -1:   0
(PID.TID 0000.0001)                          to points i=  -1:  10, j=  -1:   0 in tile  111(proc =   1)
(PID.TID 0000.0001) Tile  107(proc =   1) sends points i=   0:   9, j=   5:   6
(PID.TID 0000.0001)                          to points i=   0:   9, j=   5:   6 in tile  103(proc =   1)
(PID.TID 0000.0001) Tile  107(proc =   1) sends points i=  -1:   0, j=  -1:   6
(PID.TID 0000.0001)                          to points i=  -1:   0, j=  -1:   6 in tile  108(proc =   1)
(PID.TID 0000.0001) Tile  107(proc =   1) sends points i=   9:  10, j=  -1:   6
(PID.TID 0000.0001)                          to points i=   9:  10, j=  -1:   6 in tile  106(proc =   1)
(PID.TID 0000.0001) Tile  108(proc =   1) sends points i=  -1:  10, j=  -1:   0
(PID.TID 0000.0001)                          to points i=  -1:  10, j=  -1:   0 in tile  112(proc =   1)
(PID.TID 0000.0001) Tile  108(proc =   1) sends points i=   0:   9, j=   5:   6
(PID.TID 0000.0001)                          to points i=   0:   9, j=   5:   6 in tile  104(proc =   1)
(PID.TID 0000.0001) Tile  108(proc =   1) sends points i=  31:  32, j=  30:  23
(PID.TID 0000.0001)                          to points i=   3:  10, j=  -1:   0 in tile  163(proc =   1)
(PID.TID 0000.0001) Tile  108(proc =   1) sends points i=   9:  10, j=  -1:   6
(PID.TID 0000.0001)                          to points i=   9:  10, j=  -1:   6 in tile  107(proc =   1)
(PID.TID 0000.0001) Tile  109(proc =   1) sends points i=  -1:  10, j=  -1:   0
(PID.TID 0000.0001)                          to points i=  -1:  10, j=  -1:   0 in tile  113(proc =   1)
(PID.TID 0000.0001) Tile  109(proc =   1) sends points i=   0:   9, j=   5:   6
(PID.TID 0000.0001)                          to points i=   0:   9, j=   5:   6 in tile  105(proc =   1)
(PID.TID 0000.0001) Tile  109(proc =   1) sends points i=  -1:   0, j=  -1:   6
(PID.TID 0000.0001)                          to points i=  -1:   0, j=  -1:   6 in tile  110(proc =   1)
(PID.TID 0000.0001) Tile  109(proc =   1) sends points i= -23: -22, j=  -1:   6
(PID.TID 0000.0001)                          to points i=   9:  10, j=  -1:   6 in tile   80(proc =   1)
(PID.TID 0000.0001) Tile  110(proc =   1) sends points i=  -1:  10, j=  -1:   0
(PID.TID 0000.0001)                          to points i=  -1:  10, j=  -1:   0 in tile  114(proc =   1)
(PID.TID 0000.0001) Tile  110(proc =   1) sends points i=   0:   9, j=   5:   6
(PID.TID 0000.0001)                          to points i=   0:   9, j=   5:   6 in tile  106(proc =   1)
(PID.TID 0000.0001) Tile  110(proc =   1) sends points i=  -1:   0, j=  -1:   6
(PID.TID 0000.0001)                          to points i=  -1:   0, j=  -1:   6 in tile  111(proc =   1)
(PID.TID 0000.0001) Tile  110(proc =   1) sends points i=   9:  10, j=  -1:   6
(PID.TID 0000.0001)                          to points i=   9:  10, j=  -1:   6 in tile  109(proc =   1)
(PID.TID 0000.0001) Tile  111(proc =   1) sends points i=  -1:  10, j=  -1:   0
(PID.TID 0000.0001)                          to points i=  -1:  10, j=  -1:   0 in tile  115(proc =   1)
(PID.TID 0000.0001) Tile  111(proc =   1) sends points i=   0:   9, j=   5:   6
(PID.TID 0000.0001)                          to points i=   0:   9, j=   5:   6 in tile  107(proc =   1)
(PID.TID 0000.0001) Tile  111(proc =   1) sends points i=  -1:   0, j=  -1:   6
(PID.TID 0000.0001)                          to points i=  -1:   0, j=  -1:   6 in tile  112(proc =   1)
(PID.TID 0000.0001) Tile  111(proc =   1) sends points i=   9:  10, j=  -1:   6
(PID.TID 0000.0001)                          to points i=   9:  10, j=  -1:   6 in tile  110(proc =   1)
(PID.TID 0000.0001) Tile  112(proc =   1) sends points i=  -1:  10, j=  -1:   0
(PID.TID 0000.0001)                          to points i=  -1:  10, j=  -1:   0 in tile  116(proc =   1)
(PID.TID 0000.0001) Tile  112(proc =   1) sends points i=   0:   9, j=   5:   6
(PID.TID 0000.0001)                          to points i=   0:   9, j=   5:   6 in tile  108(proc =   1)
(PID.TID 0000.0001) Tile  112(proc =   1) sends points i=  31:  32, j=  34:  27
(PID.TID 0000.0001)                          to points i=  -1:   6, j=  -1:   0 in tile  163(proc =   1)
(PID.TID 0000.0001) Tile  112(proc =   1) sends points i=   9:  10, j=  -1:   6
(PID.TID 0000.0001)                          to points i=   9:  10, j=  -1:   6 in tile  111(proc =   1)
(PID.TID 0000.0001) Tile  113(proc =   1) sends points i=  -1:  10, j=  -1:   0
(PID.TID 0000.0001)                          to points i=  -1:  10, j=  -1:   0 in tile  117(proc =   1)
(PID.TID 0000.0001) Tile  113(proc =   1) sends points i=   0:   9, j=   5:   6
(PID.TID 0000.0001)                          to points i=   0:   9, j=   5:   6 in tile  109(proc =   1)
(PID.TID 0000.0001) Tile  113(proc =   1) sends points i=  -1:   0, j=  -1:   6
(PID.TID 0000.0001)                          to points i=  -1:   0, j=  -1:   6 in tile  114(proc =   1)
(PID.TID 0000.0001) Tile  113(proc =   1) sends points i= -23: -22, j=  -1:   6
(PID.TID 0000.0001)                          to points i=   9:  10, j=  -1:   6 in tile   84(proc =   1)
(PID.TID 0000.0001) Tile  114(proc =   1) sends points i=  -1:  10, j=  -1:   0
(PID.TID 0000.0001)                          to points i=  -1:  10, j=  -1:   0 in tile  118(proc =   1)
(PID.TID 0000.0001) Tile  114(proc =   1) sends points i=   0:   9, j=   5:   6
(PID.TID 0000.0001)                          to points i=   0:   9, j=   5:   6 in tile  110(proc =   1)
(PID.TID 0000.0001) Tile  114(proc =   1) sends points i=  -1:   0, j=  -1:   6
(PID.TID 0000.0001)                          to points i=  -1:   0, j=  -1:   6 in tile  115(proc =   1)
(PID.TID 0000.0001) Tile  114(proc =   1) sends points i=   9:  10, j=  -1:   6
(PID.TID 0000.0001)                          to points i=   9:  10, j=  -1:   6 in tile  113(proc =   1)
(PID.TID 0000.0001) Tile  115(proc =   1) sends points i=  -1:  10, j=  -1:   0
(PID.TID 0000.0001)                          to points i=  -1:  10, j=  -1:   0 in tile  119(proc =   1)
(PID.TID 0000.0001) Tile  115(proc =   1) sends points i=   0:   9, j=   5:   6
(PID.TID 0000.0001)                          to points i=   0:   9, j=   5:   6 in tile  111(proc =   1)
(PID.TID 0000.0001) Tile  115(proc =   1) sends points i=  -1:   0, j=  -1:   6
(PID.TID 0000.0001)                          to points i=  -1:   0, j=  -1:   6 in tile  116(proc =   1)
(PID.TID 0000.0001) Tile  115(proc =   1) sends points i=   9:  10, j=  -1:   6
(PID.TID 0000.0001)                          to points i=   9:  10, j=  -1:   6 in tile  114(proc =   1)
(PID.TID 0000.0001) Tile  116(proc =   1) sends points i=  -1:  10, j=  -1:   0
(PID.TID 0000.0001)                          to points i=  -1:  10, j=  -1:   0 in tile  120(proc =   1)
(PID.TID 0000.0001) Tile  116(proc =   1) sends points i=   0:   9, j=   5:   6
(PID.TID 0000.0001)                          to points i=   0:   9, j=   5:   6 in tile  112(proc =   1)
(PID.TID 0000.0001) Tile  116(proc =   1) sends points i=  31:  32, j=  30:  23
(PID.TID 0000.0001)                          to points i=   3:  10, j=  -1:   0 in tile  162(proc =   1)
(PID.TID 0000.0001) Tile  116(proc =   1) sends points i=   9:  10, j=  -1:   6
(PID.TID 0000.0001)                          to points i=   9:  10, j=  -1:   6 in tile  115(proc =   1)
(PID.TID 0000.0001) Tile  117(proc =   1) sends points i=  -1:  10, j=  -1:   0
(PID.TID 0000.0001)                          to points i=  -1:  10, j=  -1:   0 in tile  121(proc =   1)
(PID.TID 0000.0001) Tile  117(proc =   1) sends points i=   0:   9, j=   5:   6
(PID.TID 0000.0001)                          to points i=   0:   9, j=   5:   6 in tile  113(proc =   1)
(PID.TID 0000.0001) Tile  117(proc =   1) sends points i=  -1:   0, j=  -1:   6
(PID.TID 0000.0001)                          to points i=  -1:   0, j=  -1:   6 in tile  118(proc =   1)
(PID.TID 0000.0001) Tile  117(proc =   1) sends points i= -23: -22, j=  -1:   6
(PID.TID 0000.0001)                          to points i=   9:  10, j=  -1:   6 in tile   88(proc =   1)
(PID.TID 0000.0001) Tile  118(proc =   1) sends points i=  -1:  10, j=  -1:   0
(PID.TID 0000.0001)                          to points i=  -1:  10, j=  -1:   0 in tile  122(proc =   1)
(PID.TID 0000.0001) Tile  118(proc =   1) sends points i=   0:   9, j=   5:   6
(PID.TID 0000.0001)                          to points i=   0:   9, j=   5:   6 in tile  114(proc =   1)
(PID.TID 0000.0001) Tile  118(proc =   1) sends points i=  -1:   0, j=  -1:   6
(PID.TID 0000.0001)                          to points i=  -1:   0, j=  -1:   6 in tile  119(proc =   1)
(PID.TID 0000.0001) Tile  118(proc =   1) sends points i=   9:  10, j=  -1:   6
(PID.TID 0000.0001)                          to points i=   9:  10, j=  -1:   6 in tile  117(proc =   1)
(PID.TID 0000.0001) Tile  119(proc =   1) sends points i=  -1:  10, j=  -1:   0
(PID.TID 0000.0001)                          to points i=  -1:  10, j=  -1:   0 in tile  123(proc =   1)
(PID.TID 0000.0001) Tile  119(proc =   1) sends points i=   0:   9, j=   5:   6
(PID.TID 0000.0001)                          to points i=   0:   9, j=   5:   6 in tile  115(proc =   1)
(PID.TID 0000.0001) Tile  119(proc =   1) sends points i=  -1:   0, j=  -1:   6
(PID.TID 0000.0001)                          to points i=  -1:   0, j=  -1:   6 in tile  120(proc =   1)
(PID.TID 0000.0001) Tile  119(proc =   1) sends points i=   9:  10, j=  -1:   6
(PID.TID 0000.0001)                          to points i=   9:  10, j=  -1:   6 in tile  118(proc =   1)
(PID.TID 0000.0001) Tile  120(proc =   1) sends points i=  -1:  10, j=  -1:   0
(PID.TID 0000.0001)                          to points i=  -1:  10, j=  -1:   0 in tile  124(proc =   1)
(PID.TID 0000.0001) Tile  120(proc =   1) sends points i=   0:   9, j=   5:   6
(PID.TID 0000.0001)                          to points i=   0:   9, j=   5:   6 in tile  116(proc =   1)
(PID.TID 0000.0001) Tile  120(proc =   1) sends points i=  31:  32, j=  34:  27
(PID.TID 0000.0001)                          to points i=  -1:   6, j=  -1:   0 in tile  162(proc =   1)
(PID.TID 0000.0001) Tile  120(proc =   1) sends points i=   9:  10, j=  -1:   6
(PID.TID 0000.0001)                          to points i=   9:  10, j=  -1:   6 in tile  119(proc =   1)
(PID.TID 0000.0001) Tile  121(proc =   1) sends points i=  -1:  10, j=  -1:   0
(PID.TID 0000.0001)                          to points i=  -1:  10, j=  -1:   0 in tile  125(proc =   1)
(PID.TID 0000.0001) Tile  121(proc =   1) sends points i=   0:   9, j=   5:   6
(PID.TID 0000.0001)                          to points i=   0:   9, j=   5:   6 in tile  117(proc =   1)
(PID.TID 0000.0001) Tile  121(proc =   1) sends points i=  -1:   0, j=  -1:   6
(PID.TID 0000.0001)                          to points i=  -1:   0, j=  -1:   6 in tile  122(proc =   1)
(PID.TID 0000.0001) Tile  121(proc =   1) sends points i= -23: -22, j=  -1:   6
(PID.TID 0000.0001)                          to points i=   9:  10, j=  -1:   6 in tile   92(proc =   1)
(PID.TID 0000.0001) Tile  122(proc =   1) sends points i=  -1:  10, j=  -1:   0
(PID.TID 0000.0001)                          to points i=  -1:  10, j=  -1:   0 in tile  126(proc =   1)
(PID.TID 0000.0001) Tile  122(proc =   1) sends points i=   0:   9, j=   5:   6
(PID.TID 0000.0001)                          to points i=   0:   9, j=   5:   6 in tile  118(proc =   1)
(PID.TID 0000.0001) Tile  122(proc =   1) sends points i=  -1:   0, j=  -1:   6
(PID.TID 0000.0001)                          to points i=  -1:   0, j=  -1:   6 in tile  123(proc =   1)
(PID.TID 0000.0001) Tile  122(proc =   1) sends points i=   9:  10, j=  -1:   6
(PID.TID 0000.0001)                          to points i=   9:  10, j=  -1:   6 in tile  121(proc =   1)
(PID.TID 0000.0001) Tile  123(proc =   1) sends points i=  -1:  10, j=  -1:   0
(PID.TID 0000.0001)                          to points i=  -1:  10, j=  -1:   0 in tile  127(proc =   1)
(PID.TID 0000.0001) Tile  123(proc =   1) sends points i=   0:   9, j=   5:   6
(PID.TID 0000.0001)                          to points i=   0:   9, j=   5:   6 in tile  119(proc =   1)
(PID.TID 0000.0001) Tile  123(proc =   1) sends points i=  -1:   0, j=  -1:   6
(PID.TID 0000.0001)                          to points i=  -1:   0, j=  -1:   6 in tile  124(proc =   1)
(PID.TID 0000.0001) Tile  123(proc =   1) sends points i=   9:  10, j=  -1:   6
(PID.TID 0000.0001)                          to points i=   9:  10, j=  -1:   6 in tile  122(proc =   1)
(PID.TID 0000.0001) Tile  124(proc =   1) sends points i=  -1:  10, j=  -1:   0
(PID.TID 0000.0001)                          to points i=  -1:  10, j=  -1:   0 in tile  128(proc =   1)
(PID.TID 0000.0001) Tile  124(proc =   1) sends points i=   0:   9, j=   5:   6
(PID.TID 0000.0001)                          to points i=   0:   9, j=   5:   6 in tile  120(proc =   1)
(PID.TID 0000.0001) Tile  124(proc =   1) sends points i=  31:  32, j=  30:  23
(PID.TID 0000.0001)                          to points i=   3:  10, j=  -1:   0 in tile  161(proc =   1)
(PID.TID 0000.0001) Tile  124(proc =   1) sends points i=   9:  10, j=  -1:   6
(PID.TID 0000.0001)                          to points i=   9:  10, j=  -1:   6 in tile  123(proc =   1)
(PID.TID 0000.0001) Tile  125(proc =   1) sends points i=  -1:  10, j=  31:  32
(PID.TID 0000.0001)                          to points i=  -1:  10, j=  -1:   0 in tile  129(proc =   1)
(PID.TID 0000.0001) Tile  125(proc =   1) sends points i=   0:   9, j=   5:   6
(PID.TID 0000.0001)                          to points i=   0:   9, j=   5:   6 in tile  121(proc =   1)
(PID.TID 0000.0001) Tile  125(proc =   1) sends points i=  -1:   0, j=  -1:   6
(PID.TID 0000.0001)                          to points i=  -1:   0, j=  -1:   6 in tile  126(proc =   1)
(PID.TID 0000.0001) Tile  125(proc =   1) sends points i= -23: -22, j=  -1:   6
(PID.TID 0000.0001)                          to points i=   9:  10, j=  -1:   6 in tile   96(proc =   1)
(PID.TID 0000.0001) Tile  126(proc =   1) sends points i=  -1:  10, j=  31:  32
(PID.TID 0000.0001)                          to points i=  -1:  10, j=  -1:   0 in tile  130(proc =   1)
(PID.TID 0000.0001) Tile  126(proc =   1) sends points i=   0:   9, j=   5:   6
(PID.TID 0000.0001)                          to points i=   0:   9, j=   5:   6 in tile  122(proc =   1)
(PID.TID 0000.0001) Tile  126(proc =   1) sends points i=  -1:   0, j=  -1:   6
(PID.TID 0000.0001)                          to points i=  -1:   0, j=  -1:   6 in tile  127(proc =   1)
(PID.TID 0000.0001) Tile  126(proc =   1) sends points i=   9:  10, j=  -1:   6
(PID.TID 0000.0001)                          to points i=   9:  10, j=  -1:   6 in tile  125(proc =   1)
(PID.TID 0000.0001) Tile  127(proc =   1) sends points i=  -1:  10, j=  31:  32
(PID.TID 0000.0001)                          to points i=  -1:  10, j=  -1:   0 in tile  131(proc =   1)
(PID.TID 0000.0001) Tile  127(proc =   1) sends points i=   0:   9, j=   5:   6
(PID.TID 0000.0001)                          to points i=   0:   9, j=   5:   6 in tile  123(proc =   1)
(PID.TID 0000.0001) Tile  127(proc =   1) sends points i=  -1:   0, j=  -1:   6
(PID.TID 0000.0001)                          to points i=  -1:   0, j=  -1:   6 in tile  128(proc =   1)
(PID.TID 0000.0001) Tile  127(proc =   1) sends points i=   9:  10, j=  -1:   6
(PID.TID 0000.0001)                          to points i=   9:  10, j=  -1:   6 in tile  126(proc =   1)
(PID.TID 0000.0001) Tile  128(proc =   1) sends points i=  -1:  10, j=  31:  32
(PID.TID 0000.0001)                          to points i=  -1:  10, j=  -1:   0 in tile  132(proc =   1)
(PID.TID 0000.0001) Tile  128(proc =   1) sends points i=   0:   9, j=   5:   6
(PID.TID 0000.0001)                          to points i=   0:   9, j=   5:   6 in tile  124(proc =   1)
(PID.TID 0000.0001) Tile  128(proc =   1) sends points i=  31:  32, j=  34:  27
(PID.TID 0000.0001)                          to points i=  -1:   6, j=  -1:   0 in tile  161(proc =   1)
(PID.TID 0000.0001) Tile  128(proc =   1) sends points i=   9:  10, j=  -1:   6
(PID.TID 0000.0001)                          to points i=   9:  10, j=  -1:   6 in tile  127(proc =   1)
(PID.TID 0000.0001) Tile  129(proc =   1) sends points i=  -1:  10, j=  -1:   0
(PID.TID 0000.0001)                          to points i=  -1:  10, j=  -1:   0 in tile  133(proc =   1)
(PID.TID 0000.0001) Tile  129(proc =   1) sends points i=  -1:  10, j= -27: -26
(PID.TID 0000.0001)                          to points i=  -1:  10, j=   5:   6 in tile  125(proc =   1)
(PID.TID 0000.0001) Tile  129(proc =   1) sends points i=  -1:   0, j=  -1:   6
(PID.TID 0000.0001)                          to points i=  -1:   0, j=  -1:   6 in tile  130(proc =   1)
(PID.TID 0000.0001) Tile  129(proc =   1) sends points i= -27: -26, j=  30:  23
(PID.TID 0000.0001)                          to points i=   3:  10, j=   5:   6 in tile   96(proc =   1)
(PID.TID 0000.0001) Tile  130(proc =   1) sends points i=  -1:  10, j=  -1:   0
(PID.TID 0000.0001)                          to points i=  -1:  10, j=  -1:   0 in tile  134(proc =   1)
(PID.TID 0000.0001) Tile  130(proc =   1) sends points i=  -1:  10, j= -27: -26
(PID.TID 0000.0001)                          to points i=  -1:  10, j=   5:   6 in tile  126(proc =   1)
(PID.TID 0000.0001) Tile  130(proc =   1) sends points i=  -1:   0, j=  -1:   6
(PID.TID 0000.0001)                          to points i=  -1:   0, j=  -1:   6 in tile  131(proc =   1)
(PID.TID 0000.0001) Tile  130(proc =   1) sends points i=   9:  10, j=  -1:   6
(PID.TID 0000.0001)                          to points i=   9:  10, j=  -1:   6 in tile  129(proc =   1)
(PID.TID 0000.0001) Tile  131(proc =   1) sends points i=  -1:  10, j=  -1:   0
(PID.TID 0000.0001)                          to points i=  -1:  10, j=  -1:   0 in tile  135(proc =   1)
(PID.TID 0000.0001) Tile  131(proc =   1) sends points i=  -1:  10, j= -27: -26
(PID.TID 0000.0001)                          to points i=  -1:  10, j=   5:   6 in tile  127(proc =   1)
(PID.TID 0000.0001) Tile  131(proc =   1) sends points i=  -1:   0, j=  -1:   6
(PID.TID 0000.0001)                          to points i=  -1:   0, j=  -1:   6 in tile  132(proc =   1)
(PID.TID 0000.0001) Tile  131(proc =   1) sends points i=   9:  10, j=  -1:   6
(PID.TID 0000.0001)                          to points i=   9:  10, j=  -1:   6 in tile  130(proc =   1)
(PID.TID 0000.0001) Tile  132(proc =   1) sends points i=  -1:  10, j=  -1:   0
(PID.TID 0000.0001)                          to points i=  -1:  10, j=  -1:   0 in tile  136(proc =   1)
(PID.TID 0000.0001) Tile  132(proc =   1) sends points i=  -1:  10, j= -27: -26
(PID.TID 0000.0001)                          to points i=  -1:  10, j=   5:   6 in tile  128(proc =   1)
(PID.TID 0000.0001) Tile  132(proc =   1) sends points i=  31:  32, j=  -1:   6
(PID.TID 0000.0001)                          to points i=  -1:   0, j=  -1:   6 in tile  161(proc =   1)
(PID.TID 0000.0001) Tile  132(proc =   1) sends points i=   9:  10, j=  -1:   6
(PID.TID 0000.0001)                          to points i=   9:  10, j=  -1:   6 in tile  131(proc =   1)
(PID.TID 0000.0001) Tile  133(proc =   1) sends points i=  -1:  10, j=  -1:   0
(PID.TID 0000.0001)                          to points i=  -1:  10, j=  -1:   0 in tile  137(proc =   1)
(PID.TID 0000.0001) Tile  133(proc =   1) sends points i=   0:   9, j=   5:   6
(PID.TID 0000.0001)                          to points i=   0:   9, j=   5:   6 in tile  129(proc =   1)
(PID.TID 0000.0001) Tile  133(proc =   1) sends points i=  -1:   0, j=  -1:   6
(PID.TID 0000.0001)                          to points i=  -1:   0, j=  -1:   6 in tile  134(proc =   1)
(PID.TID 0000.0001) Tile  133(proc =   1) sends points i= -27: -26, j=  34:  27
(PID.TID 0000.0001)                          to points i=  -1:   6, j=   5:   6 in tile   96(proc =   1)
(PID.TID 0000.0001) Tile  134(proc =   1) sends points i=  -1:  10, j=  -1:   0
(PID.TID 0000.0001)                          to points i=  -1:  10, j=  -1:   0 in tile  138(proc =   1)
(PID.TID 0000.0001) Tile  134(proc =   1) sends points i=   0:   9, j=   5:   6
(PID.TID 0000.0001)                          to points i=   0:   9, j=   5:   6 in tile  130(proc =   1)
(PID.TID 0000.0001) Tile  134(proc =   1) sends points i=  -1:   0, j=  -1:   6
(PID.TID 0000.0001)                          to points i=  -1:   0, j=  -1:   6 in tile  135(proc =   1)
(PID.TID 0000.0001) Tile  134(proc =   1) sends points i=   9:  10, j=  -1:   6
(PID.TID 0000.0001)                          to points i=   9:  10, j=  -1:   6 in tile  133(proc =   1)
(PID.TID 0000.0001) Tile  135(proc =   1) sends points i=  -1:  10, j=  -1:   0
(PID.TID 0000.0001)                          to points i=  -1:  10, j=  -1:   0 in tile  139(proc =   1)
(PID.TID 0000.0001) Tile  135(proc =   1) sends points i=   0:   9, j=   5:   6
(PID.TID 0000.0001)                          to points i=   0:   9, j=   5:   6 in tile  131(proc =   1)
(PID.TID 0000.0001) Tile  135(proc =   1) sends points i=  -1:   0, j=  -1:   6
(PID.TID 0000.0001)                          to points i=  -1:   0, j=  -1:   6 in tile  136(proc =   1)
(PID.TID 0000.0001) Tile  135(proc =   1) sends points i=   9:  10, j=  -1:   6
(PID.TID 0000.0001)                          to points i=   9:  10, j=  -1:   6 in tile  134(proc =   1)
(PID.TID 0000.0001) Tile  136(proc =   1) sends points i=  -1:  10, j=  -1:   0
(PID.TID 0000.0001)                          to points i=  -1:  10, j=  -1:   0 in tile  140(proc =   1)
(PID.TID 0000.0001) Tile  136(proc =   1) sends points i=   0:   9, j=   5:   6
(PID.TID 0000.0001)                          to points i=   0:   9, j=   5:   6 in tile  132(proc =   1)
(PID.TID 0000.0001) Tile  136(proc =   1) sends points i=  31:  32, j=  -1:   6
(PID.TID 0000.0001)                          to points i=  -1:   0, j=  -1:   6 in tile  165(proc =   1)
(PID.TID 0000.0001) Tile  136(proc =   1) sends points i=   9:  10, j=  -1:   6
(PID.TID 0000.0001)                          to points i=   9:  10, j=  -1:   6 in tile  135(proc =   1)
(PID.TID 0000.0001) Tile  137(proc =   1) sends points i=  -1:  10, j=  -1:   0
(PID.TID 0000.0001)                          to points i=  -1:  10, j=  -1:   0 in tile  141(proc =   1)
(PID.TID 0000.0001) Tile  137(proc =   1) sends points i=   0:   9, j=   5:   6
(PID.TID 0000.0001)                          to points i=   0:   9, j=   5:   6 in tile  133(proc =   1)
(PID.TID 0000.0001) Tile  137(proc =   1) sends points i=  -1:   0, j=  -1:   6
(PID.TID 0000.0001)                          to points i=  -1:   0, j=  -1:   6 in tile  138(proc =   1)
(PID.TID 0000.0001) Tile  137(proc =   1) sends points i= -27: -26, j=  30:  23
(PID.TID 0000.0001)                          to points i=   3:  10, j=   5:   6 in tile   95(proc =   1)
(PID.TID 0000.0001) Tile  138(proc =   1) sends points i=  -1:  10, j=  -1:   0
(PID.TID 0000.0001)                          to points i=  -1:  10, j=  -1:   0 in tile  142(proc =   1)
(PID.TID 0000.0001) Tile  138(proc =   1) sends points i=   0:   9, j=   5:   6
(PID.TID 0000.0001)                          to points i=   0:   9, j=   5:   6 in tile  134(proc =   1)
(PID.TID 0000.0001) Tile  138(proc =   1) sends points i=  -1:   0, j=  -1:   6
(PID.TID 0000.0001)                          to points i=  -1:   0, j=  -1:   6 in tile  139(proc =   1)
(PID.TID 0000.0001) Tile  138(proc =   1) sends points i=   9:  10, j=  -1:   6
(PID.TID 0000.0001)                          to points i=   9:  10, j=  -1:   6 in tile  137(proc =   1)
(PID.TID 0000.0001) Tile  139(proc =   1) sends points i=  -1:  10, j=  -1:   0
(PID.TID 0000.0001)                          to points i=  -1:  10, j=  -1:   0 in tile  143(proc =   1)
(PID.TID 0000.0001) Tile  139(proc =   1) sends points i=   0:   9, j=   5:   6
(PID.TID 0000.0001)                          to points i=   0:   9, j=   5:   6 in tile  135(proc =   1)
(PID.TID 0000.0001) Tile  139(proc =   1) sends points i=  -1:   0, j=  -1:   6
(PID.TID 0000.0001)                          to points i=  -1:   0, j=  -1:   6 in tile  140(proc =   1)
(PID.TID 0000.0001) Tile  139(proc =   1) sends points i=   9:  10, j=  -1:   6
(PID.TID 0000.0001)                          to points i=   9:  10, j=  -1:   6 in tile  138(proc =   1)
(PID.TID 0000.0001) Tile  140(proc =   1) sends points i=  -1:  10, j=  -1:   0
(PID.TID 0000.0001)                          to points i=  -1:  10, j=  -1:   0 in tile  144(proc =   1)
(PID.TID 0000.0001) Tile  140(proc =   1) sends points i=   0:   9, j=   5:   6
(PID.TID 0000.0001)                          to points i=   0:   9, j=   5:   6 in tile  136(proc =   1)
(PID.TID 0000.0001) Tile  140(proc =   1) sends points i=  31:  32, j=  -1:   6
(PID.TID 0000.0001)                          to points i=  -1:   0, j=  -1:   6 in tile  169(proc =   1)
(PID.TID 0000.0001) Tile  140(proc =   1) sends points i=   9:  10, j=  -1:   6
(PID.TID 0000.0001)                          to points i=   9:  10, j=  -1:   6 in tile  139(proc =   1)
(PID.TID 0000.0001) Tile  141(proc =   1) sends points i=  -1:  10, j=  -1:   0
(PID.TID 0000.0001)                          to points i=  -1:  10, j=  -1:   0 in tile  145(proc =   1)
(PID.TID 0000.0001) Tile  141(proc =   1) sends points i=   0:   9, j=   5:   6
(PID.TID 0000.0001)                          to points i=   0:   9, j=   5:   6 in tile  137(proc =   1)
(PID.TID 0000.0001) Tile  141(proc =   1) sends points i=  -1:   0, j=  -1:   6
(PID.TID 0000.0001)                          to points i=  -1:   0, j=  -1:   6 in tile  142(proc =   1)
(PID.TID 0000.0001) Tile  141(proc =   1) sends points i= -27: -26, j=  34:  27
(PID.TID 0000.0001)                          to points i=  -1:   6, j=   5:   6 in tile   95(proc =   1)
(PID.TID 0000.0001) Tile  142(proc =   1) sends points i=  -1:  10, j=  -1:   0
(PID.TID 0000.0001)                          to points i=  -1:  10, j=  -1:   0 in tile  146(proc =   1)
(PID.TID 0000.0001) Tile  142(proc =   1) sends points i=   0:   9, j=   5:   6
(PID.TID 0000.0001)                          to points i=   0:   9, j=   5:   6 in tile  138(proc =   1)
(PID.TID 0000.0001) Tile  142(proc =   1) sends points i=  -1:   0, j=  -1:   6
(PID.TID 0000.0001)                          to points i=  -1:   0, j=  -1:   6 in tile  143(proc =   1)
(PID.TID 0000.0001) Tile  142(proc =   1) sends points i=   9:  10, j=  -1:   6
(PID.TID 0000.0001)                          to points i=   9:  10, j=  -1:   6 in tile  141(proc =   1)
(PID.TID 0000.0001) Tile  143(proc =   1) sends points i=  -1:  10, j=  -1:   0
(PID.TID 0000.0001)                          to points i=  -1:  10, j=  -1:   0 in tile  147(proc =   1)
(PID.TID 0000.0001) Tile  143(proc =   1) sends points i=   0:   9, j=   5:   6
(PID.TID 0000.0001)                          to points i=   0:   9, j=   5:   6 in tile  139(proc =   1)
(PID.TID 0000.0001) Tile  143(proc =   1) sends points i=  -1:   0, j=  -1:   6
(PID.TID 0000.0001)                          to points i=  -1:   0, j=  -1:   6 in tile  144(proc =   1)
(PID.TID 0000.0001) Tile  143(proc =   1) sends points i=   9:  10, j=  -1:   6
(PID.TID 0000.0001)                          to points i=   9:  10, j=  -1:   6 in tile  142(proc =   1)
(PID.TID 0000.0001) Tile  144(proc =   1) sends points i=  -1:  10, j=  -1:   0
(PID.TID 0000.0001)                          to points i=  -1:  10, j=  -1:   0 in tile  148(proc =   1)
(PID.TID 0000.0001) Tile  144(proc =   1) sends points i=   0:   9, j=   5:   6
(PID.TID 0000.0001)                          to points i=   0:   9, j=   5:   6 in tile  140(proc =   1)
(PID.TID 0000.0001) Tile  144(proc =   1) sends points i=  31:  32, j=  -1:   6
(PID.TID 0000.0001)                          to points i=  -1:   0, j=  -1:   6 in tile  173(proc =   1)
(PID.TID 0000.0001) Tile  144(proc =   1) sends points i=   9:  10, j=  -1:   6
(PID.TID 0000.0001)                          to points i=   9:  10, j=  -1:   6 in tile  143(proc =   1)
(PID.TID 0000.0001) Tile  145(proc =   1) sends points i=  -1:  10, j=  -1:   0
(PID.TID 0000.0001)                          to points i=  -1:  10, j=  -1:   0 in tile  149(proc =   1)
(PID.TID 0000.0001) Tile  145(proc =   1) sends points i=   0:   9, j=   5:   6
(PID.TID 0000.0001)                          to points i=   0:   9, j=   5:   6 in tile  141(proc =   1)
(PID.TID 0000.0001) Tile  145(proc =   1) sends points i=  -1:   0, j=  -1:   6
(PID.TID 0000.0001)                          to points i=  -1:   0, j=  -1:   6 in tile  146(proc =   1)
(PID.TID 0000.0001) Tile  145(proc =   1) sends points i= -27: -26, j=  30:  23
(PID.TID 0000.0001)                          to points i=   3:  10, j=   5:   6 in tile   94(proc =   1)
(PID.TID 0000.0001) Tile  146(proc =   1) sends points i=  -1:  10, j=  -1:   0
(PID.TID 0000.0001)                          to points i=  -1:  10, j=  -1:   0 in tile  150(proc =   1)
(PID.TID 0000.0001) Tile  146(proc =   1) sends points i=   0:   9, j=   5:   6
(PID.TID 0000.0001)                          to points i=   0:   9, j=   5:   6 in tile  142(proc =   1)
(PID.TID 0000.0001) Tile  146(proc =   1) sends points i=  -1:   0, j=  -1:   6
(PID.TID 0000.0001)                          to points i=  -1:   0, j=  -1:   6 in tile  147(proc =   1)
(PID.TID 0000.0001) Tile  146(proc =   1) sends points i=   9:  10, j=  -1:   6
(PID.TID 0000.0001)                          to points i=   9:  10, j=  -1:   6 in tile  145(proc =   1)
(PID.TID 0000.0001) Tile  147(proc =   1) sends points i=  -1:  10, j=  -1:   0
(PID.TID 0000.0001)                          to points i=  -1:  10, j=  -1:   0 in tile  151(proc =   1)
(PID.TID 0000.0001) Tile  147(proc =   1) sends points i=   0:   9, j=   5:   6
(PID.TID 0000.0001)                          to points i=   0:   9, j=   5:   6 in tile  143(proc =   1)
(PID.TID 0000.0001) Tile  147(proc =   1) sends points i=  -1:   0, j=  -1:   6
(PID.TID 0000.0001)                          to points i=  -1:   0, j=  -1:   6 in tile  148(proc =   1)
(PID.TID 0000.0001) Tile  147(proc =   1) sends points i=   9:  10, j=  -1:   6
(PID.TID 0000.0001)                          to points i=   9:  10, j=  -1:   6 in tile  146(proc =   1)
(PID.TID 0000.0001) Tile  148(proc =   1) sends points i=  -1:  10, j=  -1:   0
(PID.TID 0000.0001)                          to points i=  -1:  10, j=  -1:   0 in tile  152(proc =   1)
(PID.TID 0000.0001) Tile  148(proc =   1) sends points i=   0:   9, j=   5:   6
(PID.TID 0000.0001)                          to points i=   0:   9, j=   5:   6 in tile  144(proc =   1)
(PID.TID 0000.0001) Tile  148(proc =   1) sends points i=  31:  32, j=  -1:   6
(PID.TID 0000.0001)                          to points i=  -1:   0, j=  -1:   6 in tile  177(proc =   1)
(PID.TID 0000.0001) Tile  148(proc =   1) sends points i=   9:  10, j=  -1:   6
(PID.TID 0000.0001)                          to points i=   9:  10, j=  -1:   6 in tile  147(proc =   1)
(PID.TID 0000.0001) Tile  149(proc =   1) sends points i=  -1:  10, j=  -1:   0
(PID.TID 0000.0001)                          to points i=  -1:  10, j=  -1:   0 in tile  153(proc =   1)
(PID.TID 0000.0001) Tile  149(proc =   1) sends points i=   0:   9, j=   5:   6
(PID.TID 0000.0001)                          to points i=   0:   9, j=   5:   6 in tile  145(proc =   1)
(PID.TID 0000.0001) Tile  149(proc =   1) sends points i=  -1:   0, j=  -1:   6
(PID.TID 0000.0001)                          to points i=  -1:   0, j=  -1:   6 in tile  150(proc =   1)
(PID.TID 0000.0001) Tile  149(proc =   1) sends points i= -27: -26, j=  34:  27
(PID.TID 0000.0001)                          to points i=  -1:   6, j=   5:   6 in tile   94(proc =   1)
(PID.TID 0000.0001) Tile  150(proc =   1) sends points i=  -1:  10, j=  -1:   0
(PID.TID 0000.0001)                          to points i=  -1:  10, j=  -1:   0 in tile  154(proc =   1)
(PID.TID 0000.0001) Tile  150(proc =   1) sends points i=   0:   9, j=   5:   6
(PID.TID 0000.0001)                          to points i=   0:   9, j=   5:   6 in tile  146(proc =   1)
(PID.TID 0000.0001) Tile  150(proc =   1) sends points i=  -1:   0, j=  -1:   6
(PID.TID 0000.0001)                          to points i=  -1:   0, j=  -1:   6 in tile  151(proc =   1)
(PID.TID 0000.0001) Tile  150(proc =   1) sends points i=   9:  10, j=  -1:   6
(PID.TID 0000.0001)                          to points i=   9:  10, j=  -1:   6 in tile  149(proc =   1)
(PID.TID 0000.0001) Tile  151(proc =   1) sends points i=  -1:  10, j=  -1:   0
(PID.TID 0000.0001)                          to points i=  -1:  10, j=  -1:   0 in tile  155(proc =   1)
(PID.TID 0000.0001) Tile  151(proc =   1) sends points i=   0:   9, j=   5:   6
(PID.TID 0000.0001)                          to points i=   0:   9, j=   5:   6 in tile  147(proc =   1)
(PID.TID 0000.0001) Tile  151(proc =   1) sends points i=  -1:   0, j=  -1:   6
(PID.TID 0000.0001)                          to points i=  -1:   0, j=  -1:   6 in tile  152(proc =   1)
(PID.TID 0000.0001) Tile  151(proc =   1) sends points i=   9:  10, j=  -1:   6
(PID.TID 0000.0001)                          to points i=   9:  10, j=  -1:   6 in tile  150(proc =   1)
(PID.TID 0000.0001) Tile  152(proc =   1) sends points i=  -1:  10, j=  -1:   0
(PID.TID 0000.0001)                          to points i=  -1:  10, j=  -1:   0 in tile  156(proc =   1)
(PID.TID 0000.0001) Tile  152(proc =   1) sends points i=   0:   9, j=   5:   6
(PID.TID 0000.0001)                          to points i=   0:   9, j=   5:   6 in tile  148(proc =   1)
(PID.TID 0000.0001) Tile  152(proc =   1) sends points i=  31:  32, j=  -1:   6
(PID.TID 0000.0001)                          to points i=  -1:   0, j=  -1:   6 in tile  181(proc =   1)
(PID.TID 0000.0001) Tile  152(proc =   1) sends points i=   9:  10, j=  -1:   6
(PID.TID 0000.0001)                          to points i=   9:  10, j=  -1:   6 in tile  151(proc =   1)
(PID.TID 0000.0001) Tile  153(proc =   1) sends points i=  -1:  10, j=  -1:   0
(PID.TID 0000.0001)                          to points i=  -1:  10, j=  -1:   0 in tile  157(proc =   1)
(PID.TID 0000.0001) Tile  153(proc =   1) sends points i=   0:   9, j=   5:   6
(PID.TID 0000.0001)                          to points i=   0:   9, j=   5:   6 in tile  149(proc =   1)
(PID.TID 0000.0001) Tile  153(proc =   1) sends points i=  -1:   0, j=  -1:   6
(PID.TID 0000.0001)                          to points i=  -1:   0, j=  -1:   6 in tile  154(proc =   1)
(PID.TID 0000.0001) Tile  153(proc =   1) sends points i= -27: -26, j=  30:  23
(PID.TID 0000.0001)                          to points i=   3:  10, j=   5:   6 in tile   93(proc =   1)
(PID.TID 0000.0001) Tile  154(proc =   1) sends points i=  -1:  10, j=  -1:   0
(PID.TID 0000.0001)                          to points i=  -1:  10, j=  -1:   0 in tile  158(proc =   1)
(PID.TID 0000.0001) Tile  154(proc =   1) sends points i=   0:   9, j=   5:   6
(PID.TID 0000.0001)                          to points i=   0:   9, j=   5:   6 in tile  150(proc =   1)
(PID.TID 0000.0001) Tile  154(proc =   1) sends points i=  -1:   0, j=  -1:   6
(PID.TID 0000.0001)                          to points i=  -1:   0, j=  -1:   6 in tile  155(proc =   1)
(PID.TID 0000.0001) Tile  154(proc =   1) sends points i=   9:  10, j=  -1:   6
(PID.TID 0000.0001)                          to points i=   9:  10, j=  -1:   6 in tile  153(proc =   1)
(PID.TID 0000.0001) Tile  155(proc =   1) sends points i=  -1:  10, j=  -1:   0
(PID.TID 0000.0001)                          to points i=  -1:  10, j=  -1:   0 in tile  159(proc =   1)
(PID.TID 0000.0001) Tile  155(proc =   1) sends points i=   0:   9, j=   5:   6
(PID.TID 0000.0001)                          to points i=   0:   9, j=   5:   6 in tile  151(proc =   1)
(PID.TID 0000.0001) Tile  155(proc =   1) sends points i=  -1:   0, j=  -1:   6
(PID.TID 0000.0001)                          to points i=  -1:   0, j=  -1:   6 in tile  156(proc =   1)
(PID.TID 0000.0001) Tile  155(proc =   1) sends points i=   9:  10, j=  -1:   6
(PID.TID 0000.0001)                          to points i=   9:  10, j=  -1:   6 in tile  154(proc =   1)
(PID.TID 0000.0001) Tile  156(proc =   1) sends points i=  -1:  10, j=  -1:   0
(PID.TID 0000.0001)                          to points i=  -1:  10, j=  -1:   0 in tile  160(proc =   1)
(PID.TID 0000.0001) Tile  156(proc =   1) sends points i=   0:   9, j=   5:   6
(PID.TID 0000.0001)                          to points i=   0:   9, j=   5:   6 in tile  152(proc =   1)
(PID.TID 0000.0001) Tile  156(proc =   1) sends points i=  31:  32, j=  -1:   6
(PID.TID 0000.0001)                          to points i=  -1:   0, j=  -1:   6 in tile  185(proc =   1)
(PID.TID 0000.0001) Tile  156(proc =   1) sends points i=   9:  10, j=  -1:   6
(PID.TID 0000.0001)                          to points i=   9:  10, j=  -1:   6 in tile  155(proc =   1)
(PID.TID 0000.0001) Tile  157(proc =   1) sends points i=  34:  27, j=  31:  32
(PID.TID 0000.0001)                          to points i=  -1:   0, j=  -1:   6 in tile   25(proc =   1)
(PID.TID 0000.0001) Tile  157(proc =   1) sends points i=  34:  27, j=  31:  32
(PID.TID 0000.0001)                          to points i=  -1:   0, j=  -1:   6 in tile   29(proc =   1)
(PID.TID 0000.0001) Tile  157(proc =   1) sends points i=   0:   9, j=   5:   6
(PID.TID 0000.0001)                          to points i=   0:   9, j=   5:   6 in tile  153(proc =   1)
(PID.TID 0000.0001) Tile  157(proc =   1) sends points i=  -1:   0, j=  -1:   6
(PID.TID 0000.0001)                          to points i=  -1:   0, j=  -1:   6 in tile  158(proc =   1)
(PID.TID 0000.0001) Tile  157(proc =   1) sends points i= -27: -26, j=  34:  27
(PID.TID 0000.0001)                          to points i=  -1:   6, j=   5:   6 in tile   93(proc =   1)
(PID.TID 0000.0001) Tile  158(proc =   1) sends points i=  34:  27, j=  31:  32
(PID.TID 0000.0001)                          to points i=  -1:   0, j=  -1:   6 in tile   17(proc =   1)
(PID.TID 0000.0001) Tile  158(proc =   1) sends points i=  34:  27, j=  31:  32
(PID.TID 0000.0001)                          to points i=  -1:   0, j=  -1:   6 in tile   21(proc =   1)
(PID.TID 0000.0001) Tile  158(proc =   1) sends points i=   0:   9, j=   5:   6
(PID.TID 0000.0001)                          to points i=   0:   9, j=   5:   6 in tile  154(proc =   1)
(PID.TID 0000.0001) Tile  158(proc =   1) sends points i=  -1:   0, j=  -1:   6
(PID.TID 0000.0001)                          to points i=  -1:   0, j=  -1:   6 in tile  159(proc =   1)
(PID.TID 0000.0001) Tile  158(proc =   1) sends points i=   9:  10, j=  -1:   6
(PID.TID 0000.0001)                          to points i=   9:  10, j=  -1:   6 in tile  157(proc =   1)
(PID.TID 0000.0001) Tile  159(proc =   1) sends points i=  34:  27, j=  31:  32
(PID.TID 0000.0001)                          to points i=  -1:   0, j=  -1:   6 in tile    9(proc =   1)
(PID.TID 0000.0001) Tile  159(proc =   1) sends points i=  34:  27, j=  31:  32
(PID.TID 0000.0001)                          to points i=  -1:   0, j=  -1:   6 in tile   13(proc =   1)
(PID.TID 0000.0001) Tile  159(proc =   1) sends points i=   0:   9, j=   5:   6
(PID.TID 0000.0001)                          to points i=   0:   9, j=   5:   6 in tile  155(proc =   1)
(PID.TID 0000.0001) Tile  159(proc =   1) sends points i=  -1:   0, j=  -1:   6
(PID.TID 0000.0001)                          to points i=  -1:   0, j=  -1:   6 in tile  160(proc =   1)
(PID.TID 0000.0001) Tile  159(proc =   1) sends points i=   9:  10, j=  -1:   6
(PID.TID 0000.0001)                          to points i=   9:  10, j=  -1:   6 in tile  158(proc =   1)
(PID.TID 0000.0001) Tile  160(proc =   1) sends points i=  34:  27, j=  31:  32
(PID.TID 0000.0001)                          to points i=  -1:   0, j=  -1:   6 in tile    1(proc =   1)
(PID.TID 0000.0001) Tile  160(proc =   1) sends points i=  34:  27, j=  31:  32
(PID.TID 0000.0001)                          to points i=  -1:   0, j=  -1:   6 in tile    5(proc =   1)
(PID.TID 0000.0001) Tile  160(proc =   1) sends points i=   0:   9, j=   5:   6
(PID.TID 0000.0001)                          to points i=   0:   9, j=   5:   6 in tile  156(proc =   1)
(PID.TID 0000.0001) Tile  160(proc =   1) sends points i=  31:  32, j=  -1:   6
(PID.TID 0000.0001)                          to points i=  -1:   0, j=  -1:   6 in tile  189(proc =   1)
(PID.TID 0000.0001) Tile  160(proc =   1) sends points i=   9:  10, j=  -1:   6
(PID.TID 0000.0001)                          to points i=   9:  10, j=  -1:   6 in tile  159(proc =   1)
(PID.TID 0000.0001) Tile  161(proc =   1) sends points i=  -1:  10, j=  -1:   0
(PID.TID 0000.0001)                          to points i=  -1:  10, j=  -1:   0 in tile  165(proc =   1)
(PID.TID 0000.0001) Tile  161(proc =   1) sends points i=  34:  27, j= -23: -22
(PID.TID 0000.0001)                          to points i=   9:  10, j=  -1:   6 in tile  124(proc =   1)
(PID.TID 0000.0001) Tile  161(proc =   1) sends points i=  34:  27, j= -23: -22
(PID.TID 0000.0001)                          to points i=   9:  10, j=  -1:   6 in tile  128(proc =   1)
(PID.TID 0000.0001) Tile  161(proc =   1) sends points i=  -1:   0, j=  -1:   6
(PID.TID 0000.0001)                          to points i=  -1:   0, j=  -1:   6 in tile  162(proc =   1)
(PID.TID 0000.0001) Tile  161(proc =   1) sends points i= -23: -22, j=  -1:   6
(PID.TID 0000.0001)                          to points i=   9:  10, j=  -1:   6 in tile  132(proc =   1)
(PID.TID 0000.0001) Tile  162(proc =   1) sends points i=  -1:  10, j=  -1:   0
(PID.TID 0000.0001)                          to points i=  -1:  10, j=  -1:   0 in tile  166(proc =   1)
(PID.TID 0000.0001) Tile  162(proc =   1) sends points i=  34:  27, j= -23: -22
(PID.TID 0000.0001)                          to points i=   9:  10, j=  -1:   6 in tile  116(proc =   1)
(PID.TID 0000.0001) Tile  162(proc =   1) sends points i=  34:  27, j= -23: -22
(PID.TID 0000.0001)                          to points i=   9:  10, j=  -1:   6 in tile  120(proc =   1)
(PID.TID 0000.0001) Tile  162(proc =   1) sends points i=  -1:   0, j=  -1:   6
(PID.TID 0000.0001)                          to points i=  -1:   0, j=  -1:   6 in tile  163(proc =   1)
(PID.TID 0000.0001) Tile  162(proc =   1) sends points i=   9:  10, j=  -1:   6
(PID.TID 0000.0001)                          to points i=   9:  10, j=  -1:   6 in tile  161(proc =   1)
(PID.TID 0000.0001) Tile  163(proc =   1) sends points i=  -1:  10, j=  -1:   0
(PID.TID 0000.0001)                          to points i=  -1:  10, j=  -1:   0 in tile  167(proc =   1)
(PID.TID 0000.0001) Tile  163(proc =   1) sends points i=  34:  27, j= -23: -22
(PID.TID 0000.0001)                          to points i=   9:  10, j=  -1:   6 in tile  108(proc =   1)
(PID.TID 0000.0001) Tile  163(proc =   1) sends points i=  34:  27, j= -23: -22
(PID.TID 0000.0001)                          to points i=   9:  10, j=  -1:   6 in tile  112(proc =   1)
(PID.TID 0000.0001) Tile  163(proc =   1) sends points i=  -1:   0, j=  -1:   6
(PID.TID 0000.0001)                          to points i=  -1:   0, j=  -1:   6 in tile  164(proc =   1)
(PID.TID 0000.0001) Tile  163(proc =   1) sends points i=   9:  10, j=  -1:   6
(PID.TID 0000.0001)                          to points i=   9:  10, j=  -1:   6 in tile  162(proc =   1)
(PID.TID 0000.0001) Tile  164(proc =   1) sends points i=  -1:  10, j=  -1:   0
(PID.TID 0000.0001)                          to points i=  -1:  10, j=  -1:   0 in tile  168(proc =   1)
(PID.TID 0000.0001) Tile  164(proc =   1) sends points i=  34:  27, j= -23: -22
(PID.TID 0000.0001)                          to points i=   9:  10, j=  -1:   6 in tile  100(proc =   1)
(PID.TID 0000.0001) Tile  164(proc =   1) sends points i=  34:  27, j= -23: -22
(PID.TID 0000.0001)                          to points i=   9:  10, j=  -1:   6 in tile  104(proc =   1)
(PID.TID 0000.0001) Tile  164(proc =   1) sends points i=  31:  32, j=  30:  23
(PID.TID 0000.0001)                          to points i=   3:  10, j=  -1:   0 in tile   36(proc =   1)
(PID.TID 0000.0001) Tile  164(proc =   1) sends points i=   9:  10, j=  -1:   6
(PID.TID 0000.0001)                          to points i=   9:  10, j=  -1:   6 in tile  163(proc =   1)
(PID.TID 0000.0001) Tile  165(proc =   1) sends points i=  -1:  10, j=  -1:   0
(PID.TID 0000.0001)                          to points i=  -1:  10, j=  -1:   0 in tile  169(proc =   1)
(PID.TID 0000.0001) Tile  165(proc =   1) sends points i=   0:   9, j=   5:   6
(PID.TID 0000.0001)                          to points i=   0:   9, j=   5:   6 in tile  161(proc =   1)
(PID.TID 0000.0001) Tile  165(proc =   1) sends points i=  -1:   0, j=  -1:   6
(PID.TID 0000.0001)                          to points i=  -1:   0, j=  -1:   6 in tile  166(proc =   1)
(PID.TID 0000.0001) Tile  165(proc =   1) sends points i= -23: -22, j=  -1:   6
(PID.TID 0000.0001)                          to points i=   9:  10, j=  -1:   6 in tile  136(proc =   1)
(PID.TID 0000.0001) Tile  166(proc =   1) sends points i=  -1:  10, j=  -1:   0
(PID.TID 0000.0001)                          to points i=  -1:  10, j=  -1:   0 in tile  170(proc =   1)
(PID.TID 0000.0001) Tile  166(proc =   1) sends points i=   0:   9, j=   5:   6
(PID.TID 0000.0001)                          to points i=   0:   9, j=   5:   6 in tile  162(proc =   1)
(PID.TID 0000.0001) Tile  166(proc =   1) sends points i=  -1:   0, j=  -1:   6
(PID.TID 0000.0001)                          to points i=  -1:   0, j=  -1:   6 in tile  167(proc =   1)
(PID.TID 0000.0001) Tile  166(proc =   1) sends points i=   9:  10, j=  -1:   6
(PID.TID 0000.0001)                          to points i=   9:  10, j=  -1:   6 in tile  165(proc =   1)
(PID.TID 0000.0001) Tile  167(proc =   1) sends points i=  -1:  10, j=  -1:   0
(PID.TID 0000.0001)                          to points i=  -1:  10, j=  -1:   0 in tile  171(proc =   1)
(PID.TID 0000.0001) Tile  167(proc =   1) sends points i=   0:   9, j=   5:   6
(PID.TID 0000.0001)                          to points i=   0:   9, j=   5:   6 in tile  163(proc =   1)
(PID.TID 0000.0001) Tile  167(proc =   1) sends points i=  -1:   0, j=  -1:   6
(PID.TID 0000.0001)                          to points i=  -1:   0, j=  -1:   6 in tile  168(proc =   1)
(PID.TID 0000.0001) Tile  167(proc =   1) sends points i=   9:  10, j=  -1:   6
(PID.TID 0000.0001)                          to points i=   9:  10, j=  -1:   6 in tile  166(proc =   1)
(PID.TID 0000.0001) Tile  168(proc =   1) sends points i=  -1:  10, j=  -1:   0
(PID.TID 0000.0001)                          to points i=  -1:  10, j=  -1:   0 in tile  172(proc =   1)
(PID.TID 0000.0001) Tile  168(proc =   1) sends points i=   0:   9, j=   5:   6
(PID.TID 0000.0001)                          to points i=   0:   9, j=   5:   6 in tile  164(proc =   1)
(PID.TID 0000.0001) Tile  168(proc =   1) sends points i=  31:  32, j=  34:  27
(PID.TID 0000.0001)                          to points i=  -1:   6, j=  -1:   0 in tile   36(proc =   1)
(PID.TID 0000.0001) Tile  168(proc =   1) sends points i=   9:  10, j=  -1:   6
(PID.TID 0000.0001)                          to points i=   9:  10, j=  -1:   6 in tile  167(proc =   1)
(PID.TID 0000.0001) Tile  169(proc =   1) sends points i=  -1:  10, j=  -1:   0
(PID.TID 0000.0001)                          to points i=  -1:  10, j=  -1:   0 in tile  173(proc =   1)
(PID.TID 0000.0001) Tile  169(proc =   1) sends points i=   0:   9, j=   5:   6
(PID.TID 0000.0001)                          to points i=   0:   9, j=   5:   6 in tile  165(proc =   1)
(PID.TID 0000.0001) Tile  169(proc =   1) sends points i=  -1:   0, j=  -1:   6
(PID.TID 0000.0001)                          to points i=  -1:   0, j=  -1:   6 in tile  170(proc =   1)
(PID.TID 0000.0001) Tile  169(proc =   1) sends points i= -23: -22, j=  -1:   6
(PID.TID 0000.0001)                          to points i=   9:  10, j=  -1:   6 in tile  140(proc =   1)
(PID.TID 0000.0001) Tile  170(proc =   1) sends points i=  -1:  10, j=  -1:   0
(PID.TID 0000.0001)                          to points i=  -1:  10, j=  -1:   0 in tile  174(proc =   1)
(PID.TID 0000.0001) Tile  170(proc =   1) sends points i=   0:   9, j=   5:   6
(PID.TID 0000.0001)                          to points i=   0:   9, j=   5:   6 in tile  166(proc =   1)
(PID.TID 0000.0001) Tile  170(proc =   1) sends points i=  -1:   0, j=  -1:   6
(PID.TID 0000.0001)                          to points i=  -1:   0, j=  -1:   6 in tile  171(proc =   1)
(PID.TID 0000.0001) Tile  170(proc =   1) sends points i=   9:  10, j=  -1:   6
(PID.TID 0000.0001)                          to points i=   9:  10, j=  -1:   6 in tile  169(proc =   1)
(PID.TID 0000.0001) Tile  171(proc =   1) sends points i=  -1:  10, j=  -1:   0
(PID.TID 0000.0001)                          to points i=  -1:  10, j=  -1:   0 in tile  175(proc =   1)
(PID.TID 0000.0001) Tile  171(proc =   1) sends points i=   0:   9, j=   5:   6
(PID.TID 0000.0001)                          to points i=   0:   9, j=   5:   6 in tile  167(proc =   1)
(PID.TID 0000.0001) Tile  171(proc =   1) sends points i=  -1:   0, j=  -1:   6
(PID.TID 0000.0001)                          to points i=  -1:   0, j=  -1:   6 in tile  172(proc =   1)
(PID.TID 0000.0001) Tile  171(proc =   1) sends points i=   9:  10, j=  -1:   6
(PID.TID 0000.0001)                          to points i=   9:  10, j=  -1:   6 in tile  170(proc =   1)
(PID.TID 0000.0001) Tile  172(proc =   1) sends points i=  -1:  10, j=  -1:   0
(PID.TID 0000.0001)                          to points i=  -1:  10, j=  -1:   0 in tile  176(proc =   1)
(PID.TID 0000.0001) Tile  172(proc =   1) sends points i=   0:   9, j=   5:   6
(PID.TID 0000.0001)                          to points i=   0:   9, j=   5:   6 in tile  168(proc =   1)
(PID.TID 0000.0001) Tile  172(proc =   1) sends points i=  31:  32, j=  30:  23
(PID.TID 0000.0001)                          to points i=   3:  10, j=  -1:   0 in tile   35(proc =   1)
(PID.TID 0000.0001) Tile  172(proc =   1) sends points i=   9:  10, j=  -1:   6
(PID.TID 0000.0001)                          to points i=   9:  10, j=  -1:   6 in tile  171(proc =   1)
(PID.TID 0000.0001) Tile  173(proc =   1) sends points i=  -1:  10, j=  -1:   0
(PID.TID 0000.0001)                          to points i=  -1:  10, j=  -1:   0 in tile  177(proc =   1)
(PID.TID 0000.0001) Tile  173(proc =   1) sends points i=   0:   9, j=   5:   6
(PID.TID 0000.0001)                          to points i=   0:   9, j=   5:   6 in tile  169(proc =   1)
(PID.TID 0000.0001) Tile  173(proc =   1) sends points i=  -1:   0, j=  -1:   6
(PID.TID 0000.0001)                          to points i=  -1:   0, j=  -1:   6 in tile  174(proc =   1)
(PID.TID 0000.0001) Tile  173(proc =   1) sends points i= -23: -22, j=  -1:   6
(PID.TID 0000.0001)                          to points i=   9:  10, j=  -1:   6 in tile  144(proc =   1)
(PID.TID 0000.0001) Tile  174(proc =   1) sends points i=  -1:  10, j=  -1:   0
(PID.TID 0000.0001)                          to points i=  -1:  10, j=  -1:   0 in tile  178(proc =   1)
(PID.TID 0000.0001) Tile  174(proc =   1) sends points i=   0:   9, j=   5:   6
(PID.TID 0000.0001)                          to points i=   0:   9, j=   5:   6 in tile  170(proc =   1)
(PID.TID 0000.0001) Tile  174(proc =   1) sends points i=  -1:   0, j=  -1:   6
(PID.TID 0000.0001)                          to points i=  -1:   0, j=  -1:   6 in tile  175(proc =   1)
(PID.TID 0000.0001) Tile  174(proc =   1) sends points i=   9:  10, j=  -1:   6
(PID.TID 0000.0001)                          to points i=   9:  10, j=  -1:   6 in tile  173(proc =   1)
(PID.TID 0000.0001) Tile  175(proc =   1) sends points i=  -1:  10, j=  -1:   0
(PID.TID 0000.0001)                          to points i=  -1:  10, j=  -1:   0 in tile  179(proc =   1)
(PID.TID 0000.0001) Tile  175(proc =   1) sends points i=   0:   9, j=   5:   6
(PID.TID 0000.0001)                          to points i=   0:   9, j=   5:   6 in tile  171(proc =   1)
(PID.TID 0000.0001) Tile  175(proc =   1) sends points i=  -1:   0, j=  -1:   6
(PID.TID 0000.0001)                          to points i=  -1:   0, j=  -1:   6 in tile  176(proc =   1)
(PID.TID 0000.0001) Tile  175(proc =   1) sends points i=   9:  10, j=  -1:   6
(PID.TID 0000.0001)                          to points i=   9:  10, j=  -1:   6 in tile  174(proc =   1)
(PID.TID 0000.0001) Tile  176(proc =   1) sends points i=  -1:  10, j=  -1:   0
(PID.TID 0000.0001)                          to points i=  -1:  10, j=  -1:   0 in tile  180(proc =   1)
(PID.TID 0000.0001) Tile  176(proc =   1) sends points i=   0:   9, j=   5:   6
(PID.TID 0000.0001)                          to points i=   0:   9, j=   5:   6 in tile  172(proc =   1)
(PID.TID 0000.0001) Tile  176(proc =   1) sends points i=  31:  32, j=  34:  27
(PID.TID 0000.0001)                          to points i=  -1:   6, j=  -1:   0 in tile   35(proc =   1)
(PID.TID 0000.0001) Tile  176(proc =   1) sends points i=   9:  10, j=  -1:   6
(PID.TID 0000.0001)                          to points i=   9:  10, j=  -1:   6 in tile  175(proc =   1)
(PID.TID 0000.0001) Tile  177(proc =   1) sends points i=  -1:  10, j=  -1:   0
(PID.TID 0000.0001)                          to points i=  -1:  10, j=  -1:   0 in tile  181(proc =   1)
(PID.TID 0000.0001) Tile  177(proc =   1) sends points i=   0:   9, j=   5:   6
(PID.TID 0000.0001)                          to points i=   0:   9, j=   5:   6 in tile  173(proc =   1)
(PID.TID 0000.0001) Tile  177(proc =   1) sends points i=  -1:   0, j=  -1:   6
(PID.TID 0000.0001)                          to points i=  -1:   0, j=  -1:   6 in tile  178(proc =   1)
(PID.TID 0000.0001) Tile  177(proc =   1) sends points i= -23: -22, j=  -1:   6
(PID.TID 0000.0001)                          to points i=   9:  10, j=  -1:   6 in tile  148(proc =   1)
(PID.TID 0000.0001) Tile  178(proc =   1) sends points i=  -1:  10, j=  -1:   0
(PID.TID 0000.0001)                          to points i=  -1:  10, j=  -1:   0 in tile  182(proc =   1)
(PID.TID 0000.0001) Tile  178(proc =   1) sends points i=   0:   9, j=   5:   6
(PID.TID 0000.0001)                          to points i=   0:   9, j=   5:   6 in tile  174(proc =   1)
(PID.TID 0000.0001) Tile  178(proc =   1) sends points i=  -1:   0, j=  -1:   6
(PID.TID 0000.0001)                          to points i=  -1:   0, j=  -1:   6 in tile  179(proc =   1)
(PID.TID 0000.0001) Tile  178(proc =   1) sends points i=   9:  10, j=  -1:   6
(PID.TID 0000.0001)                          to points i=   9:  10, j=  -1:   6 in tile  177(proc =   1)
(PID.TID 0000.0001) Tile  179(proc =   1) sends points i=  -1:  10, j=  -1:   0
(PID.TID 0000.0001)                          to points i=  -1:  10, j=  -1:   0 in tile  183(proc =   1)
(PID.TID 0000.0001) Tile  179(proc =   1) sends points i=   0:   9, j=   5:   6
(PID.TID 0000.0001)                          to points i=   0:   9, j=   5:   6 in tile  175(proc =   1)
(PID.TID 0000.0001) Tile  179(proc =   1) sends points i=  -1:   0, j=  -1:   6
(PID.TID 0000.0001)                          to points i=  -1:   0, j=  -1:   6 in tile  180(proc =   1)
(PID.TID 0000.0001) Tile  179(proc =   1) sends points i=   9:  10, j=  -1:   6
(PID.TID 0000.0001)                          to points i=   9:  10, j=  -1:   6 in tile  178(proc =   1)
(PID.TID 0000.0001) Tile  180(proc =   1) sends points i=  -1:  10, j=  -1:   0
(PID.TID 0000.0001)                          to points i=  -1:  10, j=  -1:   0 in tile  184(proc =   1)
(PID.TID 0000.0001) Tile  180(proc =   1) sends points i=   0:   9, j=   5:   6
(PID.TID 0000.0001)                          to points i=   0:   9, j=   5:   6 in tile  176(proc =   1)
(PID.TID 0000.0001) Tile  180(proc =   1) sends points i=  31:  32, j=  30:  23
(PID.TID 0000.0001)                          to points i=   3:  10, j=  -1:   0 in tile   34(proc =   1)
(PID.TID 0000.0001) Tile  180(proc =   1) sends points i=   9:  10, j=  -1:   6
(PID.TID 0000.0001)                          to points i=   9:  10, j=  -1:   6 in tile  179(proc =   1)
(PID.TID 0000.0001) Tile  181(proc =   1) sends points i=  -1:  10, j=  -1:   0
(PID.TID 0000.0001)                          to points i=  -1:  10, j=  -1:   0 in tile  185(proc =   1)
(PID.TID 0000.0001) Tile  181(proc =   1) sends points i=   0:   9, j=   5:   6
(PID.TID 0000.0001)                          to points i=   0:   9, j=   5:   6 in tile  177(proc =   1)
(PID.TID 0000.0001) Tile  181(proc =   1) sends points i=  -1:   0, j=  -1:   6
(PID.TID 0000.0001)                          to points i=  -1:   0, j=  -1:   6 in tile  182(proc =   1)
(PID.TID 0000.0001) Tile  181(proc =   1) sends points i= -23: -22, j=  -1:   6
(PID.TID 0000.0001)                          to points i=   9:  10, j=  -1:   6 in tile  152(proc =   1)
(PID.TID 0000.0001) Tile  182(proc =   1) sends points i=  -1:  10, j=  -1:   0
(PID.TID 0000.0001)                          to points i=  -1:  10, j=  -1:   0 in tile  186(proc =   1)
(PID.TID 0000.0001) Tile  182(proc =   1) sends points i=   0:   9, j=   5:   6
(PID.TID 0000.0001)                          to points i=   0:   9, j=   5:   6 in tile  178(proc =   1)
(PID.TID 0000.0001) Tile  182(proc =   1) sends points i=  -1:   0, j=  -1:   6
(PID.TID 0000.0001)                          to points i=  -1:   0, j=  -1:   6 in tile  183(proc =   1)
(PID.TID 0000.0001) Tile  182(proc =   1) sends points i=   9:  10, j=  -1:   6
(PID.TID 0000.0001)                          to points i=   9:  10, j=  -1:   6 in tile  181(proc =   1)
(PID.TID 0000.0001) Tile  183(proc =   1) sends points i=  -1:  10, j=  -1:   0
(PID.TID 0000.0001)                          to points i=  -1:  10, j=  -1:   0 in tile  187(proc =   1)
(PID.TID 0000.0001) Tile  183(proc =   1) sends points i=   0:   9, j=   5:   6
(PID.TID 0000.0001)                          to points i=   0:   9, j=   5:   6 in tile  179(proc =   1)
(PID.TID 0000.0001) Tile  183(proc =   1) sends points i=  -1:   0, j=  -1:   6
(PID.TID 0000.0001)                          to points i=  -1:   0, j=  -1:   6 in tile  184(proc =   1)
(PID.TID 0000.0001) Tile  183(proc =   1) sends points i=   9:  10, j=  -1:   6
(PID.TID 0000.0001)                          to points i=   9:  10, j=  -1:   6 in tile  182(proc =   1)
(PID.TID 0000.0001) Tile  184(proc =   1) sends points i=  -1:  10, j=  -1:   0
(PID.TID 0000.0001)                          to points i=  -1:  10, j=  -1:   0 in tile  188(proc =   1)
(PID.TID 0000.0001) Tile  184(proc =   1) sends points i=   0:   9, j=   5:   6
(PID.TID 0000.0001)                          to points i=   0:   9, j=   5:   6 in tile  180(proc =   1)
(PID.TID 0000.0001) Tile  184(proc =   1) sends points i=  31:  32, j=  34:  27
(PID.TID 0000.0001)                          to points i=  -1:   6, j=  -1:   0 in tile   34(proc =   1)
(PID.TID 0000.0001) Tile  184(proc =   1) sends points i=   9:  10, j=  -1:   6
(PID.TID 0000.0001)                          to points i=   9:  10, j=  -1:   6 in tile  183(proc =   1)
(PID.TID 0000.0001) Tile  185(proc =   1) sends points i=  -1:  10, j=  -1:   0
(PID.TID 0000.0001)                          to points i=  -1:  10, j=  -1:   0 in tile  189(proc =   1)
(PID.TID 0000.0001) Tile  185(proc =   1) sends points i=   0:   9, j=   5:   6
(PID.TID 0000.0001)                          to points i=   0:   9, j=   5:   6 in tile  181(proc =   1)
(PID.TID 0000.0001) Tile  185(proc =   1) sends points i=  -1:   0, j=  -1:   6
(PID.TID 0000.0001)                          to points i=  -1:   0, j=  -1:   6 in tile  186(proc =   1)
(PID.TID 0000.0001) Tile  185(proc =   1) sends points i= -23: -22, j=  -1:   6
(PID.TID 0000.0001)                          to points i=   9:  10, j=  -1:   6 in tile  156(proc =   1)
(PID.TID 0000.0001) Tile  186(proc =   1) sends points i=  -1:  10, j=  -1:   0
(PID.TID 0000.0001)                          to points i=  -1:  10, j=  -1:   0 in tile  190(proc =   1)
(PID.TID 0000.0001) Tile  186(proc =   1) sends points i=   0:   9, j=   5:   6
(PID.TID 0000.0001)                          to points i=   0:   9, j=   5:   6 in tile  182(proc =   1)
(PID.TID 0000.0001) Tile  186(proc =   1) sends points i=  -1:   0, j=  -1:   6
(PID.TID 0000.0001)                          to points i=  -1:   0, j=  -1:   6 in tile  187(proc =   1)
(PID.TID 0000.0001) Tile  186(proc =   1) sends points i=   9:  10, j=  -1:   6
(PID.TID 0000.0001)                          to points i=   9:  10, j=  -1:   6 in tile  185(proc =   1)
(PID.TID 0000.0001) Tile  187(proc =   1) sends points i=  -1:  10, j=  -1:   0
(PID.TID 0000.0001)                          to points i=  -1:  10, j=  -1:   0 in tile  191(proc =   1)
(PID.TID 0000.0001) Tile  187(proc =   1) sends points i=   0:   9, j=   5:   6
(PID.TID 0000.0001)                          to points i=   0:   9, j=   5:   6 in tile  183(proc =   1)
(PID.TID 0000.0001) Tile  187(proc =   1) sends points i=  -1:   0, j=  -1:   6
(PID.TID 0000.0001)                          to points i=  -1:   0, j=  -1:   6 in tile  188(proc =   1)
(PID.TID 0000.0001) Tile  187(proc =   1) sends points i=   9:  10, j=  -1:   6
(PID.TID 0000.0001)                          to points i=   9:  10, j=  -1:   6 in tile  186(proc =   1)
(PID.TID 0000.0001) Tile  188(proc =   1) sends points i=  -1:  10, j=  -1:   0
(PID.TID 0000.0001)                          to points i=  -1:  10, j=  -1:   0 in tile  192(proc =   1)
(PID.TID 0000.0001) Tile  188(proc =   1) sends points i=   0:   9, j=   5:   6
(PID.TID 0000.0001)                          to points i=   0:   9, j=   5:   6 in tile  184(proc =   1)
(PID.TID 0000.0001) Tile  188(proc =   1) sends points i=  31:  32, j=  30:  23
(PID.TID 0000.0001)                          to points i=   3:  10, j=  -1:   0 in tile   33(proc =   1)
(PID.TID 0000.0001) Tile  188(proc =   1) sends points i=   9:  10, j=  -1:   6
(PID.TID 0000.0001)                          to points i=   9:  10, j=  -1:   6 in tile  187(proc =   1)
(PID.TID 0000.0001) Tile  189(proc =   1) sends points i=  -1:  10, j=  31:  32
(PID.TID 0000.0001)                          to points i=  -1:  10, j=  -1:   0 in tile    1(proc =   1)
(PID.TID 0000.0001) Tile  189(proc =   1) sends points i=   0:   9, j=   5:   6
(PID.TID 0000.0001)                          to points i=   0:   9, j=   5:   6 in tile  185(proc =   1)
(PID.TID 0000.0001) Tile  189(proc =   1) sends points i=  -1:   0, j=  -1:   6
(PID.TID 0000.0001)                          to points i=  -1:   0, j=  -1:   6 in tile  190(proc =   1)
(PID.TID 0000.0001) Tile  189(proc =   1) sends points i= -23: -22, j=  -1:   6
(PID.TID 0000.0001)                          to points i=   9:  10, j=  -1:   6 in tile  160(proc =   1)
(PID.TID 0000.0001) Tile  190(proc =   1) sends points i=  -1:  10, j=  31:  32
(PID.TID 0000.0001)                          to points i=  -1:  10, j=  -1:   0 in tile    2(proc =   1)
(PID.TID 0000.0001) Tile  190(proc =   1) sends points i=   0:   9, j=   5:   6
(PID.TID 0000.0001)                          to points i=   0:   9, j=   5:   6 in tile  186(proc =   1)
(PID.TID 0000.0001) Tile  190(proc =   1) sends points i=  -1:   0, j=  -1:   6
(PID.TID 0000.0001)                          to points i=  -1:   0, j=  -1:   6 in tile  191(proc =   1)
(PID.TID 0000.0001) Tile  190(proc =   1) sends points i=   9:  10, j=  -1:   6
(PID.TID 0000.0001)                          to points i=   9:  10, j=  -1:   6 in tile  189(proc =   1)
(PID.TID 0000.0001) Tile  191(proc =   1) sends points i=  -1:  10, j=  31:  32
(PID.TID 0000.0001)                          to points i=  -1:  10, j=  -1:   0 in tile    3(proc =   1)
(PID.TID 0000.0001) Tile  191(proc =   1) sends points i=   0:   9, j=   5:   6
(PID.TID 0000.0001)                          to points i=   0:   9, j=   5:   6 in tile  187(proc =   1)
(PID.TID 0000.0001) Tile  191(proc =   1) sends points i=  -1:   0, j=  -1:   6
(PID.TID 0000.0001)                          to points i=  -1:   0, j=  -1:   6 in tile  192(proc =   1)
(PID.TID 0000.0001) Tile  191(proc =   1) sends points i=   9:  10, j=  -1:   6
(PID.TID 0000.0001)                          to points i=   9:  10, j=  -1:   6 in tile  190(proc =   1)
(PID.TID 0000.0001) Tile  192(proc =   1) sends points i=  -1:  10, j=  31:  32
(PID.TID 0000.0001)                          to points i=  -1:  10, j=  -1:   0 in tile    4(proc =   1)
(PID.TID 0000.0001) Tile  192(proc =   1) sends points i=   0:   9, j=   5:   6
(PID.TID 0000.0001)                          to points i=   0:   9, j=   5:   6 in tile  188(proc =   1)
(PID.TID 0000.0001) Tile  192(proc =   1) sends points i=  31:  32, j=  34:  27
(PID.TID 0000.0001)                          to points i=  -1:   6, j=  -1:   0 in tile   33(proc =   1)
(PID.TID 0000.0001) Tile  192(proc =   1) sends points i=   9:  10, j=  -1:   6
(PID.TID 0000.0001)                          to points i=   9:  10, j=  -1:   6 in tile  191(proc =   1)
(PID.TID 0000.0001) Tile    1(proc =   1)recv to points i=   0:   9, j=   5:   6from tile   5(proc =   1)
(PID.TID 0000.0001) Tile    1(proc =   1)recv to points i=  -1:  10, j=  -1:   0from tile 189(proc =   1)
(PID.TID 0000.0001) Tile    1(proc =   1)recv to points i=   9:  10, j=  -1:   6from tile   2(proc =   1)
(PID.TID 0000.0001) Tile    1(proc =   1)recv to points i=  -1:   0, j=  -1:   6from tile 160(proc =   1)
(PID.TID 0000.0001) Tile    2(proc =   1)recv to points i=   0:   9, j=   5:   6from tile   6(proc =   1)
(PID.TID 0000.0001) Tile    2(proc =   1)recv to points i=  -1:  10, j=  -1:   0from tile 190(proc =   1)
(PID.TID 0000.0001) Tile    2(proc =   1)recv to points i=   9:  10, j=  -1:   6from tile   3(proc =   1)
(PID.TID 0000.0001) Tile    2(proc =   1)recv to points i=  -1:   0, j=  -1:   6from tile   1(proc =   1)
(PID.TID 0000.0001) Tile    3(proc =   1)recv to points i=   0:   9, j=   5:   6from tile   7(proc =   1)
(PID.TID 0000.0001) Tile    3(proc =   1)recv to points i=  -1:  10, j=  -1:   0from tile 191(proc =   1)
(PID.TID 0000.0001) Tile    3(proc =   1)recv to points i=   9:  10, j=  -1:   6from tile   4(proc =   1)
(PID.TID 0000.0001) Tile    3(proc =   1)recv to points i=  -1:   0, j=  -1:   6from tile   2(proc =   1)
(PID.TID 0000.0001) Tile    4(proc =   1)recv to points i=   0:   9, j=   5:   6from tile   8(proc =   1)
(PID.TID 0000.0001) Tile    4(proc =   1)recv to points i=  -1:  10, j=  -1:   0from tile 192(proc =   1)
(PID.TID 0000.0001) Tile    4(proc =   1)recv to points i=   9:  10, j=  -1:   6from tile  33(proc =   1)
(PID.TID 0000.0001) Tile    4(proc =   1)recv to points i=  -1:   0, j=  -1:   6from tile   3(proc =   1)
(PID.TID 0000.0001) Tile    5(proc =   1)recv to points i=   0:   9, j=   5:   6from tile   9(proc =   1)
(PID.TID 0000.0001) Tile    5(proc =   1)recv to points i=  -1:  10, j=  -1:   0from tile   1(proc =   1)
(PID.TID 0000.0001) Tile    5(proc =   1)recv to points i=   9:  10, j=  -1:   6from tile   6(proc =   1)
(PID.TID 0000.0001) Tile    5(proc =   1)recv to points i=  -1:   0, j=  -1:   6from tile 160(proc =   1)
(PID.TID 0000.0001) Tile    6(proc =   1)recv to points i=   0:   9, j=   5:   6from tile  10(proc =   1)
(PID.TID 0000.0001) Tile    6(proc =   1)recv to points i=  -1:  10, j=  -1:   0from tile   2(proc =   1)
(PID.TID 0000.0001) Tile    6(proc =   1)recv to points i=   9:  10, j=  -1:   6from tile   7(proc =   1)
(PID.TID 0000.0001) Tile    6(proc =   1)recv to points i=  -1:   0, j=  -1:   6from tile   5(proc =   1)
(PID.TID 0000.0001) Tile    7(proc =   1)recv to points i=   0:   9, j=   5:   6from tile  11(proc =   1)
(PID.TID 0000.0001) Tile    7(proc =   1)recv to points i=  -1:  10, j=  -1:   0from tile   3(proc =   1)
(PID.TID 0000.0001) Tile    7(proc =   1)recv to points i=   9:  10, j=  -1:   6from tile   8(proc =   1)
(PID.TID 0000.0001) Tile    7(proc =   1)recv to points i=  -1:   0, j=  -1:   6from tile   6(proc =   1)
(PID.TID 0000.0001) Tile    8(proc =   1)recv to points i=   0:   9, j=   5:   6from tile  12(proc =   1)
(PID.TID 0000.0001) Tile    8(proc =   1)recv to points i=  -1:  10, j=  -1:   0from tile   4(proc =   1)
(PID.TID 0000.0001) Tile    8(proc =   1)recv to points i=   9:  10, j=  -1:   6from tile  37(proc =   1)
(PID.TID 0000.0001) Tile    8(proc =   1)recv to points i=  -1:   0, j=  -1:   6from tile   7(proc =   1)
(PID.TID 0000.0001) Tile    9(proc =   1)recv to points i=   0:   9, j=   5:   6from tile  13(proc =   1)
(PID.TID 0000.0001) Tile    9(proc =   1)recv to points i=  -1:  10, j=  -1:   0from tile   5(proc =   1)
(PID.TID 0000.0001) Tile    9(proc =   1)recv to points i=   9:  10, j=  -1:   6from tile  10(proc =   1)
(PID.TID 0000.0001) Tile    9(proc =   1)recv to points i=  -1:   0, j=  -1:   6from tile 159(proc =   1)
(PID.TID 0000.0001) Tile   10(proc =   1)recv to points i=   0:   9, j=   5:   6from tile  14(proc =   1)
(PID.TID 0000.0001) Tile   10(proc =   1)recv to points i=  -1:  10, j=  -1:   0from tile   6(proc =   1)
(PID.TID 0000.0001) Tile   10(proc =   1)recv to points i=   9:  10, j=  -1:   6from tile  11(proc =   1)
(PID.TID 0000.0001) Tile   10(proc =   1)recv to points i=  -1:   0, j=  -1:   6from tile   9(proc =   1)
(PID.TID 0000.0001) Tile   11(proc =   1)recv to points i=   0:   9, j=   5:   6from tile  15(proc =   1)
(PID.TID 0000.0001) Tile   11(proc =   1)recv to points i=  -1:  10, j=  -1:   0from tile   7(proc =   1)
(PID.TID 0000.0001) Tile   11(proc =   1)recv to points i=   9:  10, j=  -1:   6from tile  12(proc =   1)
(PID.TID 0000.0001) Tile   11(proc =   1)recv to points i=  -1:   0, j=  -1:   6from tile  10(proc =   1)
(PID.TID 0000.0001) Tile   12(proc =   1)recv to points i=   0:   9, j=   5:   6from tile  16(proc =   1)
(PID.TID 0000.0001) Tile   12(proc =   1)recv to points i=  -1:  10, j=  -1:   0from tile   8(proc =   1)
(PID.TID 0000.0001) Tile   12(proc =   1)recv to points i=   9:  10, j=  -1:   6from tile  41(proc =   1)
(PID.TID 0000.0001) Tile   12(proc =   1)recv to points i=  -1:   0, j=  -1:   6from tile  11(proc =   1)
(PID.TID 0000.0001) Tile   13(proc =   1)recv to points i=   0:   9, j=   5:   6from tile  17(proc =   1)
(PID.TID 0000.0001) Tile   13(proc =   1)recv to points i=  -1:  10, j=  -1:   0from tile   9(proc =   1)
(PID.TID 0000.0001) Tile   13(proc =   1)recv to points i=   9:  10, j=  -1:   6from tile  14(proc =   1)
(PID.TID 0000.0001) Tile   13(proc =   1)recv to points i=  -1:   0, j=  -1:   6from tile 159(proc =   1)
(PID.TID 0000.0001) Tile   14(proc =   1)recv to points i=   0:   9, j=   5:   6from tile  18(proc =   1)
(PID.TID 0000.0001) Tile   14(proc =   1)recv to points i=  -1:  10, j=  -1:   0from tile  10(proc =   1)
(PID.TID 0000.0001) Tile   14(proc =   1)recv to points i=   9:  10, j=  -1:   6from tile  15(proc =   1)
(PID.TID 0000.0001) Tile   14(proc =   1)recv to points i=  -1:   0, j=  -1:   6from tile  13(proc =   1)
(PID.TID 0000.0001) Tile   15(proc =   1)recv to points i=   0:   9, j=   5:   6from tile  19(proc =   1)
(PID.TID 0000.0001) Tile   15(proc =   1)recv to points i=  -1:  10, j=  -1:   0from tile  11(proc =   1)
(PID.TID 0000.0001) Tile   15(proc =   1)recv to points i=   9:  10, j=  -1:   6from tile  16(proc =   1)
(PID.TID 0000.0001) Tile   15(proc =   1)recv to points i=  -1:   0, j=  -1:   6from tile  14(proc =   1)
(PID.TID 0000.0001) Tile   16(proc =   1)recv to points i=   0:   9, j=   5:   6from tile  20(proc =   1)
(PID.TID 0000.0001) Tile   16(proc =   1)recv to points i=  -1:  10, j=  -1:   0from tile  12(proc =   1)
(PID.TID 0000.0001) Tile   16(proc =   1)recv to points i=   9:  10, j=  -1:   6from tile  45(proc =   1)
(PID.TID 0000.0001) Tile   16(proc =   1)recv to points i=  -1:   0, j=  -1:   6from tile  15(proc =   1)
(PID.TID 0000.0001) Tile   17(proc =   1)recv to points i=   0:   9, j=   5:   6from tile  21(proc =   1)
(PID.TID 0000.0001) Tile   17(proc =   1)recv to points i=  -1:  10, j=  -1:   0from tile  13(proc =   1)
(PID.TID 0000.0001) Tile   17(proc =   1)recv to points i=   9:  10, j=  -1:   6from tile  18(proc =   1)
(PID.TID 0000.0001) Tile   17(proc =   1)recv to points i=  -1:   0, j=  -1:   6from tile 158(proc =   1)
(PID.TID 0000.0001) Tile   18(proc =   1)recv to points i=   0:   9, j=   5:   6from tile  22(proc =   1)
(PID.TID 0000.0001) Tile   18(proc =   1)recv to points i=  -1:  10, j=  -1:   0from tile  14(proc =   1)
(PID.TID 0000.0001) Tile   18(proc =   1)recv to points i=   9:  10, j=  -1:   6from tile  19(proc =   1)
(PID.TID 0000.0001) Tile   18(proc =   1)recv to points i=  -1:   0, j=  -1:   6from tile  17(proc =   1)
(PID.TID 0000.0001) Tile   19(proc =   1)recv to points i=   0:   9, j=   5:   6from tile  23(proc =   1)
(PID.TID 0000.0001) Tile   19(proc =   1)recv to points i=  -1:  10, j=  -1:   0from tile  15(proc =   1)
(PID.TID 0000.0001) Tile   19(proc =   1)recv to points i=   9:  10, j=  -1:   6from tile  20(proc =   1)
(PID.TID 0000.0001) Tile   19(proc =   1)recv to points i=  -1:   0, j=  -1:   6from tile  18(proc =   1)
(PID.TID 0000.0001) Tile   20(proc =   1)recv to points i=   0:   9, j=   5:   6from tile  24(proc =   1)
(PID.TID 0000.0001) Tile   20(proc =   1)recv to points i=  -1:  10, j=  -1:   0from tile  16(proc =   1)
(PID.TID 0000.0001) Tile   20(proc =   1)recv to points i=   9:  10, j=  -1:   6from tile  49(proc =   1)
(PID.TID 0000.0001) Tile   20(proc =   1)recv to points i=  -1:   0, j=  -1:   6from tile  19(proc =   1)
(PID.TID 0000.0001) Tile   21(proc =   1)recv to points i=   0:   9, j=   5:   6from tile  25(proc =   1)
(PID.TID 0000.0001) Tile   21(proc =   1)recv to points i=  -1:  10, j=  -1:   0from tile  17(proc =   1)
(PID.TID 0000.0001) Tile   21(proc =   1)recv to points i=   9:  10, j=  -1:   6from tile  22(proc =   1)
(PID.TID 0000.0001) Tile   21(proc =   1)recv to points i=  -1:   0, j=  -1:   6from tile 158(proc =   1)
(PID.TID 0000.0001) Tile   22(proc =   1)recv to points i=   0:   9, j=   5:   6from tile  26(proc =   1)
(PID.TID 0000.0001) Tile   22(proc =   1)recv to points i=  -1:  10, j=  -1:   0from tile  18(proc =   1)
(PID.TID 0000.0001) Tile   22(proc =   1)recv to points i=   9:  10, j=  -1:   6from tile  23(proc =   1)
(PID.TID 0000.0001) Tile   22(proc =   1)recv to points i=  -1:   0, j=  -1:   6from tile  21(proc =   1)
(PID.TID 0000.0001) Tile   23(proc =   1)recv to points i=   0:   9, j=   5:   6from tile  27(proc =   1)
(PID.TID 0000.0001) Tile   23(proc =   1)recv to points i=  -1:  10, j=  -1:   0from tile  19(proc =   1)
(PID.TID 0000.0001) Tile   23(proc =   1)recv to points i=   9:  10, j=  -1:   6from tile  24(proc =   1)
(PID.TID 0000.0001) Tile   23(proc =   1)recv to points i=  -1:   0, j=  -1:   6from tile  22(proc =   1)
(PID.TID 0000.0001) Tile   24(proc =   1)recv to points i=   0:   9, j=   5:   6from tile  28(proc =   1)
(PID.TID 0000.0001) Tile   24(proc =   1)recv to points i=  -1:  10, j=  -1:   0from tile  20(proc =   1)
(PID.TID 0000.0001) Tile   24(proc =   1)recv to points i=   9:  10, j=  -1:   6from tile  53(proc =   1)
(PID.TID 0000.0001) Tile   24(proc =   1)recv to points i=  -1:   0, j=  -1:   6from tile  23(proc =   1)
(PID.TID 0000.0001) Tile   25(proc =   1)recv to points i=   0:   9, j=   5:   6from tile  29(proc =   1)
(PID.TID 0000.0001) Tile   25(proc =   1)recv to points i=  -1:  10, j=  -1:   0from tile  21(proc =   1)
(PID.TID 0000.0001) Tile   25(proc =   1)recv to points i=   9:  10, j=  -1:   6from tile  26(proc =   1)
(PID.TID 0000.0001) Tile   25(proc =   1)recv to points i=  -1:   0, j=  -1:   6from tile 157(proc =   1)
(PID.TID 0000.0001) Tile   26(proc =   1)recv to points i=   0:   9, j=   5:   6from tile  30(proc =   1)
(PID.TID 0000.0001) Tile   26(proc =   1)recv to points i=  -1:  10, j=  -1:   0from tile  22(proc =   1)
(PID.TID 0000.0001) Tile   26(proc =   1)recv to points i=   9:  10, j=  -1:   6from tile  27(proc =   1)
(PID.TID 0000.0001) Tile   26(proc =   1)recv to points i=  -1:   0, j=  -1:   6from tile  25(proc =   1)
(PID.TID 0000.0001) Tile   27(proc =   1)recv to points i=   0:   9, j=   5:   6from tile  31(proc =   1)
(PID.TID 0000.0001) Tile   27(proc =   1)recv to points i=  -1:  10, j=  -1:   0from tile  23(proc =   1)
(PID.TID 0000.0001) Tile   27(proc =   1)recv to points i=   9:  10, j=  -1:   6from tile  28(proc =   1)
(PID.TID 0000.0001) Tile   27(proc =   1)recv to points i=  -1:   0, j=  -1:   6from tile  26(proc =   1)
(PID.TID 0000.0001) Tile   28(proc =   1)recv to points i=   0:   9, j=   5:   6from tile  32(proc =   1)
(PID.TID 0000.0001) Tile   28(proc =   1)recv to points i=  -1:  10, j=  -1:   0from tile  24(proc =   1)
(PID.TID 0000.0001) Tile   28(proc =   1)recv to points i=   9:  10, j=  -1:   6from tile  57(proc =   1)
(PID.TID 0000.0001) Tile   28(proc =   1)recv to points i=  -1:   0, j=  -1:   6from tile  27(proc =   1)
(PID.TID 0000.0001) Tile   29(proc =   1)recv to points i=   3:  10, j=   5:   6from tile  89(proc =   1)
(PID.TID 0000.0001) Tile   29(proc =   1)recv to points i=  -1:   6, j=   5:   6from tile  93(proc =   1)
(PID.TID 0000.0001) Tile   29(proc =   1)recv to points i=  -1:  10, j=  -1:   0from tile  25(proc =   1)
(PID.TID 0000.0001) Tile   29(proc =   1)recv to points i=   9:  10, j=  -1:   6from tile  30(proc =   1)
(PID.TID 0000.0001) Tile   29(proc =   1)recv to points i=  -1:   0, j=  -1:   6from tile 157(proc =   1)
(PID.TID 0000.0001) Tile   30(proc =   1)recv to points i=   3:  10, j=   5:   6from tile  81(proc =   1)
(PID.TID 0000.0001) Tile   30(proc =   1)recv to points i=  -1:   6, j=   5:   6from tile  85(proc =   1)
(PID.TID 0000.0001) Tile   30(proc =   1)recv to points i=  -1:  10, j=  -1:   0from tile  26(proc =   1)
(PID.TID 0000.0001) Tile   30(proc =   1)recv to points i=   9:  10, j=  -1:   6from tile  31(proc =   1)
(PID.TID 0000.0001) Tile   30(proc =   1)recv to points i=  -1:   0, j=  -1:   6from tile  29(proc =   1)
(PID.TID 0000.0001) Tile   31(proc =   1)recv to points i=   3:  10, j=   5:   6from tile  73(proc =   1)
(PID.TID 0000.0001) Tile   31(proc =   1)recv to points i=  -1:   6, j=   5:   6from tile  77(proc =   1)
(PID.TID 0000.0001) Tile   31(proc =   1)recv to points i=  -1:  10, j=  -1:   0from tile  27(proc =   1)
(PID.TID 0000.0001) Tile   31(proc =   1)recv to points i=   9:  10, j=  -1:   6from tile  32(proc =   1)
(PID.TID 0000.0001) Tile   31(proc =   1)recv to points i=  -1:   0, j=  -1:   6from tile  30(proc =   1)
(PID.TID 0000.0001) Tile   32(proc =   1)recv to points i=   3:  10, j=   5:   6from tile  65(proc =   1)
(PID.TID 0000.0001) Tile   32(proc =   1)recv to points i=  -1:   6, j=   5:   6from tile  69(proc =   1)
(PID.TID 0000.0001) Tile   32(proc =   1)recv to points i=  -1:  10, j=  -1:   0from tile  28(proc =   1)
(PID.TID 0000.0001) Tile   32(proc =   1)recv to points i=   9:  10, j=  -1:   6from tile  61(proc =   1)
(PID.TID 0000.0001) Tile   32(proc =   1)recv to points i=  -1:   0, j=  -1:   6from tile  31(proc =   1)
(PID.TID 0000.0001) Tile   33(proc =   1)recv to points i=   0:   9, j=   5:   6from tile  37(proc =   1)
(PID.TID 0000.0001) Tile   33(proc =   1)recv to points i=   3:  10, j=  -1:   0from tile 188(proc =   1)
(PID.TID 0000.0001) Tile   33(proc =   1)recv to points i=  -1:   6, j=  -1:   0from tile 192(proc =   1)
(PID.TID 0000.0001) Tile   33(proc =   1)recv to points i=   9:  10, j=  -1:   6from tile  34(proc =   1)
(PID.TID 0000.0001) Tile   33(proc =   1)recv to points i=  -1:   0, j=  -1:   6from tile   4(proc =   1)
(PID.TID 0000.0001) Tile   34(proc =   1)recv to points i=   0:   9, j=   5:   6from tile  38(proc =   1)
(PID.TID 0000.0001) Tile   34(proc =   1)recv to points i=   3:  10, j=  -1:   0from tile 180(proc =   1)
(PID.TID 0000.0001) Tile   34(proc =   1)recv to points i=  -1:   6, j=  -1:   0from tile 184(proc =   1)
(PID.TID 0000.0001) Tile   34(proc =   1)recv to points i=   9:  10, j=  -1:   6from tile  35(proc =   1)
(PID.TID 0000.0001) Tile   34(proc =   1)recv to points i=  -1:   0, j=  -1:   6from tile  33(proc =   1)
(PID.TID 0000.0001) Tile   35(proc =   1)recv to points i=   0:   9, j=   5:   6from tile  39(proc =   1)
(PID.TID 0000.0001) Tile   35(proc =   1)recv to points i=   3:  10, j=  -1:   0from tile 172(proc =   1)
(PID.TID 0000.0001) Tile   35(proc =   1)recv to points i=  -1:   6, j=  -1:   0from tile 176(proc =   1)
(PID.TID 0000.0001) Tile   35(proc =   1)recv to points i=   9:  10, j=  -1:   6from tile  36(proc =   1)
(PID.TID 0000.0001) Tile   35(proc =   1)recv to points i=  -1:   0, j=  -1:   6from tile  34(proc =   1)
(PID.TID 0000.0001) Tile   36(proc =   1)recv to points i=   0:   9, j=   5:   6from tile  40(proc =   1)
(PID.TID 0000.0001) Tile   36(proc =   1)recv to points i=   3:  10, j=  -1:   0from tile 164(proc =   1)
(PID.TID 0000.0001) Tile   36(proc =   1)recv to points i=  -1:   6, j=  -1:   0from tile 168(proc =   1)
(PID.TID 0000.0001) Tile   36(proc =   1)recv to points i=   9:  10, j=  -1:   6from tile 100(proc =   1)
(PID.TID 0000.0001) Tile   36(proc =   1)recv to points i=  -1:   0, j=  -1:   6from tile  35(proc =   1)
(PID.TID 0000.0001) Tile   37(proc =   1)recv to points i=   0:   9, j=   5:   6from tile  41(proc =   1)
(PID.TID 0000.0001) Tile   37(proc =   1)recv to points i=  -1:  10, j=  -1:   0from tile  33(proc =   1)
(PID.TID 0000.0001) Tile   37(proc =   1)recv to points i=   9:  10, j=  -1:   6from tile  38(proc =   1)
(PID.TID 0000.0001) Tile   37(proc =   1)recv to points i=  -1:   0, j=  -1:   6from tile   8(proc =   1)
(PID.TID 0000.0001) Tile   38(proc =   1)recv to points i=   0:   9, j=   5:   6from tile  42(proc =   1)
(PID.TID 0000.0001) Tile   38(proc =   1)recv to points i=  -1:  10, j=  -1:   0from tile  34(proc =   1)
(PID.TID 0000.0001) Tile   38(proc =   1)recv to points i=   9:  10, j=  -1:   6from tile  39(proc =   1)
(PID.TID 0000.0001) Tile   38(proc =   1)recv to points i=  -1:   0, j=  -1:   6from tile  37(proc =   1)
(PID.TID 0000.0001) Tile   39(proc =   1)recv to points i=   0:   9, j=   5:   6from tile  43(proc =   1)
(PID.TID 0000.0001) Tile   39(proc =   1)recv to points i=  -1:  10, j=  -1:   0from tile  35(proc =   1)
(PID.TID 0000.0001) Tile   39(proc =   1)recv to points i=   9:  10, j=  -1:   6from tile  40(proc =   1)
(PID.TID 0000.0001) Tile   39(proc =   1)recv to points i=  -1:   0, j=  -1:   6from tile  38(proc =   1)
(PID.TID 0000.0001) Tile   40(proc =   1)recv to points i=   0:   9, j=   5:   6from tile  44(proc =   1)
(PID.TID 0000.0001) Tile   40(proc =   1)recv to points i=  -1:  10, j=  -1:   0from tile  36(proc =   1)
(PID.TID 0000.0001) Tile   40(proc =   1)recv to points i=   9:  10, j=  -1:   6from tile 100(proc =   1)
(PID.TID 0000.0001) Tile   40(proc =   1)recv to points i=  -1:   0, j=  -1:   6from tile  39(proc =   1)
(PID.TID 0000.0001) Tile   41(proc =   1)recv to points i=   0:   9, j=   5:   6from tile  45(proc =   1)
(PID.TID 0000.0001) Tile   41(proc =   1)recv to points i=  -1:  10, j=  -1:   0from tile  37(proc =   1)
(PID.TID 0000.0001) Tile   41(proc =   1)recv to points i=   9:  10, j=  -1:   6from tile  42(proc =   1)
(PID.TID 0000.0001) Tile   41(proc =   1)recv to points i=  -1:   0, j=  -1:   6from tile  12(proc =   1)
(PID.TID 0000.0001) Tile   42(proc =   1)recv to points i=   0:   9, j=   5:   6from tile  46(proc =   1)
(PID.TID 0000.0001) Tile   42(proc =   1)recv to points i=  -1:  10, j=  -1:   0from tile  38(proc =   1)
(PID.TID 0000.0001) Tile   42(proc =   1)recv to points i=   9:  10, j=  -1:   6from tile  43(proc =   1)
(PID.TID 0000.0001) Tile   42(proc =   1)recv to points i=  -1:   0, j=  -1:   6from tile  41(proc =   1)
(PID.TID 0000.0001) Tile   43(proc =   1)recv to points i=   0:   9, j=   5:   6from tile  47(proc =   1)
(PID.TID 0000.0001) Tile   43(proc =   1)recv to points i=  -1:  10, j=  -1:   0from tile  39(proc =   1)
(PID.TID 0000.0001) Tile   43(proc =   1)recv to points i=   9:  10, j=  -1:   6from tile  44(proc =   1)
(PID.TID 0000.0001) Tile   43(proc =   1)recv to points i=  -1:   0, j=  -1:   6from tile  42(proc =   1)
(PID.TID 0000.0001) Tile   44(proc =   1)recv to points i=   0:   9, j=   5:   6from tile  48(proc =   1)
(PID.TID 0000.0001) Tile   44(proc =   1)recv to points i=  -1:  10, j=  -1:   0from tile  40(proc =   1)
(PID.TID 0000.0001) Tile   44(proc =   1)recv to points i=   9:  10, j=  -1:   6from tile  99(proc =   1)
(PID.TID 0000.0001) Tile   44(proc =   1)recv to points i=  -1:   0, j=  -1:   6from tile  43(proc =   1)
(PID.TID 0000.0001) Tile   45(proc =   1)recv to points i=   0:   9, j=   5:   6from tile  49(proc =   1)
(PID.TID 0000.0001) Tile   45(proc =   1)recv to points i=  -1:  10, j=  -1:   0from tile  41(proc =   1)
(PID.TID 0000.0001) Tile   45(proc =   1)recv to points i=   9:  10, j=  -1:   6from tile  46(proc =   1)
(PID.TID 0000.0001) Tile   45(proc =   1)recv to points i=  -1:   0, j=  -1:   6from tile  16(proc =   1)
(PID.TID 0000.0001) Tile   46(proc =   1)recv to points i=   0:   9, j=   5:   6from tile  50(proc =   1)
(PID.TID 0000.0001) Tile   46(proc =   1)recv to points i=  -1:  10, j=  -1:   0from tile  42(proc =   1)
(PID.TID 0000.0001) Tile   46(proc =   1)recv to points i=   9:  10, j=  -1:   6from tile  47(proc =   1)
(PID.TID 0000.0001) Tile   46(proc =   1)recv to points i=  -1:   0, j=  -1:   6from tile  45(proc =   1)
(PID.TID 0000.0001) Tile   47(proc =   1)recv to points i=   0:   9, j=   5:   6from tile  51(proc =   1)
(PID.TID 0000.0001) Tile   47(proc =   1)recv to points i=  -1:  10, j=  -1:   0from tile  43(proc =   1)
(PID.TID 0000.0001) Tile   47(proc =   1)recv to points i=   9:  10, j=  -1:   6from tile  48(proc =   1)
(PID.TID 0000.0001) Tile   47(proc =   1)recv to points i=  -1:   0, j=  -1:   6from tile  46(proc =   1)
(PID.TID 0000.0001) Tile   48(proc =   1)recv to points i=   0:   9, j=   5:   6from tile  52(proc =   1)
(PID.TID 0000.0001) Tile   48(proc =   1)recv to points i=  -1:  10, j=  -1:   0from tile  44(proc =   1)
(PID.TID 0000.0001) Tile   48(proc =   1)recv to points i=   9:  10, j=  -1:   6from tile  99(proc =   1)
(PID.TID 0000.0001) Tile   48(proc =   1)recv to points i=  -1:   0, j=  -1:   6from tile  47(proc =   1)
(PID.TID 0000.0001) Tile   49(proc =   1)recv to points i=   0:   9, j=   5:   6from tile  53(proc =   1)
(PID.TID 0000.0001) Tile   49(proc =   1)recv to points i=  -1:  10, j=  -1:   0from tile  45(proc =   1)
(PID.TID 0000.0001) Tile   49(proc =   1)recv to points i=   9:  10, j=  -1:   6from tile  50(proc =   1)
(PID.TID 0000.0001) Tile   49(proc =   1)recv to points i=  -1:   0, j=  -1:   6from tile  20(proc =   1)
(PID.TID 0000.0001) Tile   50(proc =   1)recv to points i=   0:   9, j=   5:   6from tile  54(proc =   1)
(PID.TID 0000.0001) Tile   50(proc =   1)recv to points i=  -1:  10, j=  -1:   0from tile  46(proc =   1)
(PID.TID 0000.0001) Tile   50(proc =   1)recv to points i=   9:  10, j=  -1:   6from tile  51(proc =   1)
(PID.TID 0000.0001) Tile   50(proc =   1)recv to points i=  -1:   0, j=  -1:   6from tile  49(proc =   1)
(PID.TID 0000.0001) Tile   51(proc =   1)recv to points i=   0:   9, j=   5:   6from tile  55(proc =   1)
(PID.TID 0000.0001) Tile   51(proc =   1)recv to points i=  -1:  10, j=  -1:   0from tile  47(proc =   1)
(PID.TID 0000.0001) Tile   51(proc =   1)recv to points i=   9:  10, j=  -1:   6from tile  52(proc =   1)
(PID.TID 0000.0001) Tile   51(proc =   1)recv to points i=  -1:   0, j=  -1:   6from tile  50(proc =   1)
(PID.TID 0000.0001) Tile   52(proc =   1)recv to points i=   0:   9, j=   5:   6from tile  56(proc =   1)
(PID.TID 0000.0001) Tile   52(proc =   1)recv to points i=  -1:  10, j=  -1:   0from tile  48(proc =   1)
(PID.TID 0000.0001) Tile   52(proc =   1)recv to points i=   9:  10, j=  -1:   6from tile  98(proc =   1)
(PID.TID 0000.0001) Tile   52(proc =   1)recv to points i=  -1:   0, j=  -1:   6from tile  51(proc =   1)
(PID.TID 0000.0001) Tile   53(proc =   1)recv to points i=   0:   9, j=   5:   6from tile  57(proc =   1)
(PID.TID 0000.0001) Tile   53(proc =   1)recv to points i=  -1:  10, j=  -1:   0from tile  49(proc =   1)
(PID.TID 0000.0001) Tile   53(proc =   1)recv to points i=   9:  10, j=  -1:   6from tile  54(proc =   1)
(PID.TID 0000.0001) Tile   53(proc =   1)recv to points i=  -1:   0, j=  -1:   6from tile  24(proc =   1)
(PID.TID 0000.0001) Tile   54(proc =   1)recv to points i=   0:   9, j=   5:   6from tile  58(proc =   1)
(PID.TID 0000.0001) Tile   54(proc =   1)recv to points i=  -1:  10, j=  -1:   0from tile  50(proc =   1)
(PID.TID 0000.0001) Tile   54(proc =   1)recv to points i=   9:  10, j=  -1:   6from tile  55(proc =   1)
(PID.TID 0000.0001) Tile   54(proc =   1)recv to points i=  -1:   0, j=  -1:   6from tile  53(proc =   1)
(PID.TID 0000.0001) Tile   55(proc =   1)recv to points i=   0:   9, j=   5:   6from tile  59(proc =   1)
(PID.TID 0000.0001) Tile   55(proc =   1)recv to points i=  -1:  10, j=  -1:   0from tile  51(proc =   1)
(PID.TID 0000.0001) Tile   55(proc =   1)recv to points i=   9:  10, j=  -1:   6from tile  56(proc =   1)
(PID.TID 0000.0001) Tile   55(proc =   1)recv to points i=  -1:   0, j=  -1:   6from tile  54(proc =   1)
(PID.TID 0000.0001) Tile   56(proc =   1)recv to points i=   0:   9, j=   5:   6from tile  60(proc =   1)
(PID.TID 0000.0001) Tile   56(proc =   1)recv to points i=  -1:  10, j=  -1:   0from tile  52(proc =   1)
(PID.TID 0000.0001) Tile   56(proc =   1)recv to points i=   9:  10, j=  -1:   6from tile  98(proc =   1)
(PID.TID 0000.0001) Tile   56(proc =   1)recv to points i=  -1:   0, j=  -1:   6from tile  55(proc =   1)
(PID.TID 0000.0001) Tile   57(proc =   1)recv to points i=   0:   9, j=   5:   6from tile  61(proc =   1)
(PID.TID 0000.0001) Tile   57(proc =   1)recv to points i=  -1:  10, j=  -1:   0from tile  53(proc =   1)
(PID.TID 0000.0001) Tile   57(proc =   1)recv to points i=   9:  10, j=  -1:   6from tile  58(proc =   1)
(PID.TID 0000.0001) Tile   57(proc =   1)recv to points i=  -1:   0, j=  -1:   6from tile  28(proc =   1)
(PID.TID 0000.0001) Tile   58(proc =   1)recv to points i=   0:   9, j=   5:   6from tile  62(proc =   1)
(PID.TID 0000.0001) Tile   58(proc =   1)recv to points i=  -1:  10, j=  -1:   0from tile  54(proc =   1)
(PID.TID 0000.0001) Tile   58(proc =   1)recv to points i=   9:  10, j=  -1:   6from tile  59(proc =   1)
(PID.TID 0000.0001) Tile   58(proc =   1)recv to points i=  -1:   0, j=  -1:   6from tile  57(proc =   1)
(PID.TID 0000.0001) Tile   59(proc =   1)recv to points i=   0:   9, j=   5:   6from tile  63(proc =   1)
(PID.TID 0000.0001) Tile   59(proc =   1)recv to points i=  -1:  10, j=  -1:   0from tile  55(proc =   1)
(PID.TID 0000.0001) Tile   59(proc =   1)recv to points i=   9:  10, j=  -1:   6from tile  60(proc =   1)
(PID.TID 0000.0001) Tile   59(proc =   1)recv to points i=  -1:   0, j=  -1:   6from tile  58(proc =   1)
(PID.TID 0000.0001) Tile   60(proc =   1)recv to points i=   0:   9, j=   5:   6from tile  64(proc =   1)
(PID.TID 0000.0001) Tile   60(proc =   1)recv to points i=  -1:  10, j=  -1:   0from tile  56(proc =   1)
(PID.TID 0000.0001) Tile   60(proc =   1)recv to points i=   9:  10, j=  -1:   6from tile  97(proc =   1)
(PID.TID 0000.0001) Tile   60(proc =   1)recv to points i=  -1:   0, j=  -1:   6from tile  59(proc =   1)
(PID.TID 0000.0001) Tile   61(proc =   1)recv to points i=  -1:  10, j=   5:   6from tile  65(proc =   1)
(PID.TID 0000.0001) Tile   61(proc =   1)recv to points i=  -1:  10, j=  -1:   0from tile  57(proc =   1)
(PID.TID 0000.0001) Tile   61(proc =   1)recv to points i=   9:  10, j=  -1:   6from tile  62(proc =   1)
(PID.TID 0000.0001) Tile   61(proc =   1)recv to points i=  -1:   0, j=  -1:   6from tile  32(proc =   1)
(PID.TID 0000.0001) Tile   62(proc =   1)recv to points i=  -1:  10, j=   5:   6from tile  66(proc =   1)
(PID.TID 0000.0001) Tile   62(proc =   1)recv to points i=  -1:  10, j=  -1:   0from tile  58(proc =   1)
(PID.TID 0000.0001) Tile   62(proc =   1)recv to points i=   9:  10, j=  -1:   6from tile  63(proc =   1)
(PID.TID 0000.0001) Tile   62(proc =   1)recv to points i=  -1:   0, j=  -1:   6from tile  61(proc =   1)
(PID.TID 0000.0001) Tile   63(proc =   1)recv to points i=  -1:  10, j=   5:   6from tile  67(proc =   1)
(PID.TID 0000.0001) Tile   63(proc =   1)recv to points i=  -1:  10, j=  -1:   0from tile  59(proc =   1)
(PID.TID 0000.0001) Tile   63(proc =   1)recv to points i=   9:  10, j=  -1:   6from tile  64(proc =   1)
(PID.TID 0000.0001) Tile   63(proc =   1)recv to points i=  -1:   0, j=  -1:   6from tile  62(proc =   1)
(PID.TID 0000.0001) Tile   64(proc =   1)recv to points i=  -1:  10, j=   5:   6from tile  68(proc =   1)
(PID.TID 0000.0001) Tile   64(proc =   1)recv to points i=  -1:  10, j=  -1:   0from tile  60(proc =   1)
(PID.TID 0000.0001) Tile   64(proc =   1)recv to points i=   9:  10, j=  -1:   6from tile  97(proc =   1)
(PID.TID 0000.0001) Tile   64(proc =   1)recv to points i=  -1:   0, j=  -1:   6from tile  63(proc =   1)
(PID.TID 0000.0001) Tile   65(proc =   1)recv to points i=   0:   9, j=   5:   6from tile  69(proc =   1)
(PID.TID 0000.0001) Tile   65(proc =   1)recv to points i=  -1:  10, j=  -1:   0from tile  61(proc =   1)
(PID.TID 0000.0001) Tile   65(proc =   1)recv to points i=   9:  10, j=  -1:   6from tile  66(proc =   1)
(PID.TID 0000.0001) Tile   65(proc =   1)recv to points i=  -1:   0, j=  -1:   6from tile  32(proc =   1)
(PID.TID 0000.0001) Tile   66(proc =   1)recv to points i=   0:   9, j=   5:   6from tile  70(proc =   1)
(PID.TID 0000.0001) Tile   66(proc =   1)recv to points i=  -1:  10, j=  -1:   0from tile  62(proc =   1)
(PID.TID 0000.0001) Tile   66(proc =   1)recv to points i=   9:  10, j=  -1:   6from tile  67(proc =   1)
(PID.TID 0000.0001) Tile   66(proc =   1)recv to points i=  -1:   0, j=  -1:   6from tile  65(proc =   1)
(PID.TID 0000.0001) Tile   67(proc =   1)recv to points i=   0:   9, j=   5:   6from tile  71(proc =   1)
(PID.TID 0000.0001) Tile   67(proc =   1)recv to points i=  -1:  10, j=  -1:   0from tile  63(proc =   1)
(PID.TID 0000.0001) Tile   67(proc =   1)recv to points i=   9:  10, j=  -1:   6from tile  68(proc =   1)
(PID.TID 0000.0001) Tile   67(proc =   1)recv to points i=  -1:   0, j=  -1:   6from tile  66(proc =   1)
(PID.TID 0000.0001) Tile   68(proc =   1)recv to points i=   0:   9, j=   5:   6from tile  72(proc =   1)
(PID.TID 0000.0001) Tile   68(proc =   1)recv to points i=  -1:  10, j=  -1:   0from tile  64(proc =   1)
(PID.TID 0000.0001) Tile   68(proc =   1)recv to points i=   9:  10, j=  -1:   6from tile  97(proc =   1)
(PID.TID 0000.0001) Tile   68(proc =   1)recv to points i=  -1:   0, j=  -1:   6from tile  67(proc =   1)
(PID.TID 0000.0001) Tile   69(proc =   1)recv to points i=   0:   9, j=   5:   6from tile  73(proc =   1)
(PID.TID 0000.0001) Tile   69(proc =   1)recv to points i=  -1:  10, j=  -1:   0from tile  65(proc =   1)
(PID.TID 0000.0001) Tile   69(proc =   1)recv to points i=   9:  10, j=  -1:   6from tile  70(proc =   1)
(PID.TID 0000.0001) Tile   69(proc =   1)recv to points i=  -1:   0, j=  -1:   6from tile  32(proc =   1)
(PID.TID 0000.0001) Tile   70(proc =   1)recv to points i=   0:   9, j=   5:   6from tile  74(proc =   1)
(PID.TID 0000.0001) Tile   70(proc =   1)recv to points i=  -1:  10, j=  -1:   0from tile  66(proc =   1)
(PID.TID 0000.0001) Tile   70(proc =   1)recv to points i=   9:  10, j=  -1:   6from tile  71(proc =   1)
(PID.TID 0000.0001) Tile   70(proc =   1)recv to points i=  -1:   0, j=  -1:   6from tile  69(proc =   1)
(PID.TID 0000.0001) Tile   71(proc =   1)recv to points i=   0:   9, j=   5:   6from tile  75(proc =   1)
(PID.TID 0000.0001) Tile   71(proc =   1)recv to points i=  -1:  10, j=  -1:   0from tile  67(proc =   1)
(PID.TID 0000.0001) Tile   71(proc =   1)recv to points i=   9:  10, j=  -1:   6from tile  72(proc =   1)
(PID.TID 0000.0001) Tile   71(proc =   1)recv to points i=  -1:   0, j=  -1:   6from tile  70(proc =   1)
(PID.TID 0000.0001) Tile   72(proc =   1)recv to points i=   0:   9, j=   5:   6from tile  76(proc =   1)
(PID.TID 0000.0001) Tile   72(proc =   1)recv to points i=  -1:  10, j=  -1:   0from tile  68(proc =   1)
(PID.TID 0000.0001) Tile   72(proc =   1)recv to points i=   9:  10, j=  -1:   6from tile 101(proc =   1)
(PID.TID 0000.0001) Tile   72(proc =   1)recv to points i=  -1:   0, j=  -1:   6from tile  71(proc =   1)
(PID.TID 0000.0001) Tile   73(proc =   1)recv to points i=   0:   9, j=   5:   6from tile  77(proc =   1)
(PID.TID 0000.0001) Tile   73(proc =   1)recv to points i=  -1:  10, j=  -1:   0from tile  69(proc =   1)
(PID.TID 0000.0001) Tile   73(proc =   1)recv to points i=   9:  10, j=  -1:   6from tile  74(proc =   1)
(PID.TID 0000.0001) Tile   73(proc =   1)recv to points i=  -1:   0, j=  -1:   6from tile  31(proc =   1)
(PID.TID 0000.0001) Tile   74(proc =   1)recv to points i=   0:   9, j=   5:   6from tile  78(proc =   1)
(PID.TID 0000.0001) Tile   74(proc =   1)recv to points i=  -1:  10, j=  -1:   0from tile  70(proc =   1)
(PID.TID 0000.0001) Tile   74(proc =   1)recv to points i=   9:  10, j=  -1:   6from tile  75(proc =   1)
(PID.TID 0000.0001) Tile   74(proc =   1)recv to points i=  -1:   0, j=  -1:   6from tile  73(proc =   1)
(PID.TID 0000.0001) Tile   75(proc =   1)recv to points i=   0:   9, j=   5:   6from tile  79(proc =   1)
(PID.TID 0000.0001) Tile   75(proc =   1)recv to points i=  -1:  10, j=  -1:   0from tile  71(proc =   1)
(PID.TID 0000.0001) Tile   75(proc =   1)recv to points i=   9:  10, j=  -1:   6from tile  76(proc =   1)
(PID.TID 0000.0001) Tile   75(proc =   1)recv to points i=  -1:   0, j=  -1:   6from tile  74(proc =   1)
(PID.TID 0000.0001) Tile   76(proc =   1)recv to points i=   0:   9, j=   5:   6from tile  80(proc =   1)
(PID.TID 0000.0001) Tile   76(proc =   1)recv to points i=  -1:  10, j=  -1:   0from tile  72(proc =   1)
(PID.TID 0000.0001) Tile   76(proc =   1)recv to points i=   9:  10, j=  -1:   6from tile 105(proc =   1)
(PID.TID 0000.0001) Tile   76(proc =   1)recv to points i=  -1:   0, j=  -1:   6from tile  75(proc =   1)
(PID.TID 0000.0001) Tile   77(proc =   1)recv to points i=   0:   9, j=   5:   6from tile  81(proc =   1)
(PID.TID 0000.0001) Tile   77(proc =   1)recv to points i=  -1:  10, j=  -1:   0from tile  73(proc =   1)
(PID.TID 0000.0001) Tile   77(proc =   1)recv to points i=   9:  10, j=  -1:   6from tile  78(proc =   1)
(PID.TID 0000.0001) Tile   77(proc =   1)recv to points i=  -1:   0, j=  -1:   6from tile  31(proc =   1)
(PID.TID 0000.0001) Tile   78(proc =   1)recv to points i=   0:   9, j=   5:   6from tile  82(proc =   1)
(PID.TID 0000.0001) Tile   78(proc =   1)recv to points i=  -1:  10, j=  -1:   0from tile  74(proc =   1)
(PID.TID 0000.0001) Tile   78(proc =   1)recv to points i=   9:  10, j=  -1:   6from tile  79(proc =   1)
(PID.TID 0000.0001) Tile   78(proc =   1)recv to points i=  -1:   0, j=  -1:   6from tile  77(proc =   1)
(PID.TID 0000.0001) Tile   79(proc =   1)recv to points i=   0:   9, j=   5:   6from tile  83(proc =   1)
(PID.TID 0000.0001) Tile   79(proc =   1)recv to points i=  -1:  10, j=  -1:   0from tile  75(proc =   1)
(PID.TID 0000.0001) Tile   79(proc =   1)recv to points i=   9:  10, j=  -1:   6from tile  80(proc =   1)
(PID.TID 0000.0001) Tile   79(proc =   1)recv to points i=  -1:   0, j=  -1:   6from tile  78(proc =   1)
(PID.TID 0000.0001) Tile   80(proc =   1)recv to points i=   0:   9, j=   5:   6from tile  84(proc =   1)
(PID.TID 0000.0001) Tile   80(proc =   1)recv to points i=  -1:  10, j=  -1:   0from tile  76(proc =   1)
(PID.TID 0000.0001) Tile   80(proc =   1)recv to points i=   9:  10, j=  -1:   6from tile 109(proc =   1)
(PID.TID 0000.0001) Tile   80(proc =   1)recv to points i=  -1:   0, j=  -1:   6from tile  79(proc =   1)
(PID.TID 0000.0001) Tile   81(proc =   1)recv to points i=   0:   9, j=   5:   6from tile  85(proc =   1)
(PID.TID 0000.0001) Tile   81(proc =   1)recv to points i=  -1:  10, j=  -1:   0from tile  77(proc =   1)
(PID.TID 0000.0001) Tile   81(proc =   1)recv to points i=   9:  10, j=  -1:   6from tile  82(proc =   1)
(PID.TID 0000.0001) Tile   81(proc =   1)recv to points i=  -1:   0, j=  -1:   6from tile  30(proc =   1)
(PID.TID 0000.0001) Tile   82(proc =   1)recv to points i=   0:   9, j=   5:   6from tile  86(proc =   1)
(PID.TID 0000.0001) Tile   82(proc =   1)recv to points i=  -1:  10, j=  -1:   0from tile  78(proc =   1)
(PID.TID 0000.0001) Tile   82(proc =   1)recv to points i=   9:  10, j=  -1:   6from tile  83(proc =   1)
(PID.TID 0000.0001) Tile   82(proc =   1)recv to points i=  -1:   0, j=  -1:   6from tile  81(proc =   1)
(PID.TID 0000.0001) Tile   83(proc =   1)recv to points i=   0:   9, j=   5:   6from tile  87(proc =   1)
(PID.TID 0000.0001) Tile   83(proc =   1)recv to points i=  -1:  10, j=  -1:   0from tile  79(proc =   1)
(PID.TID 0000.0001) Tile   83(proc =   1)recv to points i=   9:  10, j=  -1:   6from tile  84(proc =   1)
(PID.TID 0000.0001) Tile   83(proc =   1)recv to points i=  -1:   0, j=  -1:   6from tile  82(proc =   1)
(PID.TID 0000.0001) Tile   84(proc =   1)recv to points i=   0:   9, j=   5:   6from tile  88(proc =   1)
(PID.TID 0000.0001) Tile   84(proc =   1)recv to points i=  -1:  10, j=  -1:   0from tile  80(proc =   1)
(PID.TID 0000.0001) Tile   84(proc =   1)recv to points i=   9:  10, j=  -1:   6from tile 113(proc =   1)
(PID.TID 0000.0001) Tile   84(proc =   1)recv to points i=  -1:   0, j=  -1:   6from tile  83(proc =   1)
(PID.TID 0000.0001) Tile   85(proc =   1)recv to points i=   0:   9, j=   5:   6from tile  89(proc =   1)
(PID.TID 0000.0001) Tile   85(proc =   1)recv to points i=  -1:  10, j=  -1:   0from tile  81(proc =   1)
(PID.TID 0000.0001) Tile   85(proc =   1)recv to points i=   9:  10, j=  -1:   6from tile  86(proc =   1)
(PID.TID 0000.0001) Tile   85(proc =   1)recv to points i=  -1:   0, j=  -1:   6from tile  30(proc =   1)
(PID.TID 0000.0001) Tile   86(proc =   1)recv to points i=   0:   9, j=   5:   6from tile  90(proc =   1)
(PID.TID 0000.0001) Tile   86(proc =   1)recv to points i=  -1:  10, j=  -1:   0from tile  82(proc =   1)
(PID.TID 0000.0001) Tile   86(proc =   1)recv to points i=   9:  10, j=  -1:   6from tile  87(proc =   1)
(PID.TID 0000.0001) Tile   86(proc =   1)recv to points i=  -1:   0, j=  -1:   6from tile  85(proc =   1)
(PID.TID 0000.0001) Tile   87(proc =   1)recv to points i=   0:   9, j=   5:   6from tile  91(proc =   1)
(PID.TID 0000.0001) Tile   87(proc =   1)recv to points i=  -1:  10, j=  -1:   0from tile  83(proc =   1)
(PID.TID 0000.0001) Tile   87(proc =   1)recv to points i=   9:  10, j=  -1:   6from tile  88(proc =   1)
(PID.TID 0000.0001) Tile   87(proc =   1)recv to points i=  -1:   0, j=  -1:   6from tile  86(proc =   1)
(PID.TID 0000.0001) Tile   88(proc =   1)recv to points i=   0:   9, j=   5:   6from tile  92(proc =   1)
(PID.TID 0000.0001) Tile   88(proc =   1)recv to points i=  -1:  10, j=  -1:   0from tile  84(proc =   1)
(PID.TID 0000.0001) Tile   88(proc =   1)recv to points i=   9:  10, j=  -1:   6from tile 117(proc =   1)
(PID.TID 0000.0001) Tile   88(proc =   1)recv to points i=  -1:   0, j=  -1:   6from tile  87(proc =   1)
(PID.TID 0000.0001) Tile   89(proc =   1)recv to points i=   0:   9, j=   5:   6from tile  93(proc =   1)
(PID.TID 0000.0001) Tile   89(proc =   1)recv to points i=  -1:  10, j=  -1:   0from tile  85(proc =   1)
(PID.TID 0000.0001) Tile   89(proc =   1)recv to points i=   9:  10, j=  -1:   6from tile  90(proc =   1)
(PID.TID 0000.0001) Tile   89(proc =   1)recv to points i=  -1:   0, j=  -1:   6from tile  29(proc =   1)
(PID.TID 0000.0001) Tile   90(proc =   1)recv to points i=   0:   9, j=   5:   6from tile  94(proc =   1)
(PID.TID 0000.0001) Tile   90(proc =   1)recv to points i=  -1:  10, j=  -1:   0from tile  86(proc =   1)
(PID.TID 0000.0001) Tile   90(proc =   1)recv to points i=   9:  10, j=  -1:   6from tile  91(proc =   1)
(PID.TID 0000.0001) Tile   90(proc =   1)recv to points i=  -1:   0, j=  -1:   6from tile  89(proc =   1)
(PID.TID 0000.0001) Tile   91(proc =   1)recv to points i=   0:   9, j=   5:   6from tile  95(proc =   1)
(PID.TID 0000.0001) Tile   91(proc =   1)recv to points i=  -1:  10, j=  -1:   0from tile  87(proc =   1)
(PID.TID 0000.0001) Tile   91(proc =   1)recv to points i=   9:  10, j=  -1:   6from tile  92(proc =   1)
(PID.TID 0000.0001) Tile   91(proc =   1)recv to points i=  -1:   0, j=  -1:   6from tile  90(proc =   1)
(PID.TID 0000.0001) Tile   92(proc =   1)recv to points i=   0:   9, j=   5:   6from tile  96(proc =   1)
(PID.TID 0000.0001) Tile   92(proc =   1)recv to points i=  -1:  10, j=  -1:   0from tile  88(proc =   1)
(PID.TID 0000.0001) Tile   92(proc =   1)recv to points i=   9:  10, j=  -1:   6from tile 121(proc =   1)
(PID.TID 0000.0001) Tile   92(proc =   1)recv to points i=  -1:   0, j=  -1:   6from tile  91(proc =   1)
(PID.TID 0000.0001) Tile   93(proc =   1)recv to points i=   3:  10, j=   5:   6from tile 153(proc =   1)
(PID.TID 0000.0001) Tile   93(proc =   1)recv to points i=  -1:   6, j=   5:   6from tile 157(proc =   1)
(PID.TID 0000.0001) Tile   93(proc =   1)recv to points i=  -1:  10, j=  -1:   0from tile  89(proc =   1)
(PID.TID 0000.0001) Tile   93(proc =   1)recv to points i=   9:  10, j=  -1:   6from tile  94(proc =   1)
(PID.TID 0000.0001) Tile   93(proc =   1)recv to points i=  -1:   0, j=  -1:   6from tile  29(proc =   1)
(PID.TID 0000.0001) Tile   94(proc =   1)recv to points i=   3:  10, j=   5:   6from tile 145(proc =   1)
(PID.TID 0000.0001) Tile   94(proc =   1)recv to points i=  -1:   6, j=   5:   6from tile 149(proc =   1)
(PID.TID 0000.0001) Tile   94(proc =   1)recv to points i=  -1:  10, j=  -1:   0from tile  90(proc =   1)
(PID.TID 0000.0001) Tile   94(proc =   1)recv to points i=   9:  10, j=  -1:   6from tile  95(proc =   1)
(PID.TID 0000.0001) Tile   94(proc =   1)recv to points i=  -1:   0, j=  -1:   6from tile  93(proc =   1)
(PID.TID 0000.0001) Tile   95(proc =   1)recv to points i=   3:  10, j=   5:   6from tile 137(proc =   1)
(PID.TID 0000.0001) Tile   95(proc =   1)recv to points i=  -1:   6, j=   5:   6from tile 141(proc =   1)
(PID.TID 0000.0001) Tile   95(proc =   1)recv to points i=  -1:  10, j=  -1:   0from tile  91(proc =   1)
(PID.TID 0000.0001) Tile   95(proc =   1)recv to points i=   9:  10, j=  -1:   6from tile  96(proc =   1)
(PID.TID 0000.0001) Tile   95(proc =   1)recv to points i=  -1:   0, j=  -1:   6from tile  94(proc =   1)
(PID.TID 0000.0001) Tile   96(proc =   1)recv to points i=   3:  10, j=   5:   6from tile 129(proc =   1)
(PID.TID 0000.0001) Tile   96(proc =   1)recv to points i=  -1:   6, j=   5:   6from tile 133(proc =   1)
(PID.TID 0000.0001) Tile   96(proc =   1)recv to points i=  -1:  10, j=  -1:   0from tile  92(proc =   1)
(PID.TID 0000.0001) Tile   96(proc =   1)recv to points i=   9:  10, j=  -1:   6from tile 125(proc =   1)
(PID.TID 0000.0001) Tile   96(proc =   1)recv to points i=  -1:   0, j=  -1:   6from tile  95(proc =   1)
(PID.TID 0000.0001) Tile   97(proc =   1)recv to points i=   0:   9, j=   5:   6from tile 101(proc =   1)
(PID.TID 0000.0001) Tile   97(proc =   1)recv to points i=   3:  10, j=  -1:   0from tile  60(proc =   1)
(PID.TID 0000.0001) Tile   97(proc =   1)recv to points i=  -1:   6, j=  -1:   0from tile  64(proc =   1)
(PID.TID 0000.0001) Tile   97(proc =   1)recv to points i=   9:  10, j=  -1:   6from tile  98(proc =   1)
(PID.TID 0000.0001) Tile   97(proc =   1)recv to points i=  -1:   0, j=  -1:   6from tile  68(proc =   1)
(PID.TID 0000.0001) Tile   98(proc =   1)recv to points i=   0:   9, j=   5:   6from tile 102(proc =   1)
(PID.TID 0000.0001) Tile   98(proc =   1)recv to points i=   3:  10, j=  -1:   0from tile  52(proc =   1)
(PID.TID 0000.0001) Tile   98(proc =   1)recv to points i=  -1:   6, j=  -1:   0from tile  56(proc =   1)
(PID.TID 0000.0001) Tile   98(proc =   1)recv to points i=   9:  10, j=  -1:   6from tile  99(proc =   1)
(PID.TID 0000.0001) Tile   98(proc =   1)recv to points i=  -1:   0, j=  -1:   6from tile  97(proc =   1)
(PID.TID 0000.0001) Tile   99(proc =   1)recv to points i=   0:   9, j=   5:   6from tile 103(proc =   1)
(PID.TID 0000.0001) Tile   99(proc =   1)recv to points i=   3:  10, j=  -1:   0from tile  44(proc =   1)
(PID.TID 0000.0001) Tile   99(proc =   1)recv to points i=  -1:   6, j=  -1:   0from tile  48(proc =   1)
(PID.TID 0000.0001) Tile   99(proc =   1)recv to points i=   9:  10, j=  -1:   6from tile 100(proc =   1)
(PID.TID 0000.0001) Tile   99(proc =   1)recv to points i=  -1:   0, j=  -1:   6from tile  98(proc =   1)
(PID.TID 0000.0001) Tile  100(proc =   1)recv to points i=   0:   9, j=   5:   6from tile 104(proc =   1)
(PID.TID 0000.0001) Tile  100(proc =   1)recv to points i=   3:  10, j=  -1:   0from tile  36(proc =   1)
(PID.TID 0000.0001) Tile  100(proc =   1)recv to points i=  -1:   6, j=  -1:   0from tile  40(proc =   1)
(PID.TID 0000.0001) Tile  100(proc =   1)recv to points i=   9:  10, j=  -1:   6from tile 164(proc =   1)
(PID.TID 0000.0001) Tile  100(proc =   1)recv to points i=  -1:   0, j=  -1:   6from tile  99(proc =   1)
(PID.TID 0000.0001) Tile  101(proc =   1)recv to points i=   0:   9, j=   5:   6from tile 105(proc =   1)
(PID.TID 0000.0001) Tile  101(proc =   1)recv to points i=  -1:  10, j=  -1:   0from tile  97(proc =   1)
(PID.TID 0000.0001) Tile  101(proc =   1)recv to points i=   9:  10, j=  -1:   6from tile 102(proc =   1)
(PID.TID 0000.0001) Tile  101(proc =   1)recv to points i=  -1:   0, j=  -1:   6from tile  72(proc =   1)
(PID.TID 0000.0001) Tile  102(proc =   1)recv to points i=   0:   9, j=   5:   6from tile 106(proc =   1)
(PID.TID 0000.0001) Tile  102(proc =   1)recv to points i=  -1:  10, j=  -1:   0from tile  98(proc =   1)
(PID.TID 0000.0001) Tile  102(proc =   1)recv to points i=   9:  10, j=  -1:   6from tile 103(proc =   1)
(PID.TID 0000.0001) Tile  102(proc =   1)recv to points i=  -1:   0, j=  -1:   6from tile 101(proc =   1)
(PID.TID 0000.0001) Tile  103(proc =   1)recv to points i=   0:   9, j=   5:   6from tile 107(proc =   1)
(PID.TID 0000.0001) Tile  103(proc =   1)recv to points i=  -1:  10, j=  -1:   0from tile  99(proc =   1)
(PID.TID 0000.0001) Tile  103(proc =   1)recv to points i=   9:  10, j=  -1:   6from tile 104(proc =   1)
(PID.TID 0000.0001) Tile  103(proc =   1)recv to points i=  -1:   0, j=  -1:   6from tile 102(proc =   1)
(PID.TID 0000.0001) Tile  104(proc =   1)recv to points i=   0:   9, j=   5:   6from tile 108(proc =   1)
(PID.TID 0000.0001) Tile  104(proc =   1)recv to points i=  -1:  10, j=  -1:   0from tile 100(proc =   1)
(PID.TID 0000.0001) Tile  104(proc =   1)recv to points i=   9:  10, j=  -1:   6from tile 164(proc =   1)
(PID.TID 0000.0001) Tile  104(proc =   1)recv to points i=  -1:   0, j=  -1:   6from tile 103(proc =   1)
(PID.TID 0000.0001) Tile  105(proc =   1)recv to points i=   0:   9, j=   5:   6from tile 109(proc =   1)
(PID.TID 0000.0001) Tile  105(proc =   1)recv to points i=  -1:  10, j=  -1:   0from tile 101(proc =   1)
(PID.TID 0000.0001) Tile  105(proc =   1)recv to points i=   9:  10, j=  -1:   6from tile 106(proc =   1)
(PID.TID 0000.0001) Tile  105(proc =   1)recv to points i=  -1:   0, j=  -1:   6from tile  76(proc =   1)
(PID.TID 0000.0001) Tile  106(proc =   1)recv to points i=   0:   9, j=   5:   6from tile 110(proc =   1)
(PID.TID 0000.0001) Tile  106(proc =   1)recv to points i=  -1:  10, j=  -1:   0from tile 102(proc =   1)
(PID.TID 0000.0001) Tile  106(proc =   1)recv to points i=   9:  10, j=  -1:   6from tile 107(proc =   1)
(PID.TID 0000.0001) Tile  106(proc =   1)recv to points i=  -1:   0, j=  -1:   6from tile 105(proc =   1)
(PID.TID 0000.0001) Tile  107(proc =   1)recv to points i=   0:   9, j=   5:   6from tile 111(proc =   1)
(PID.TID 0000.0001) Tile  107(proc =   1)recv to points i=  -1:  10, j=  -1:   0from tile 103(proc =   1)
(PID.TID 0000.0001) Tile  107(proc =   1)recv to points i=   9:  10, j=  -1:   6from tile 108(proc =   1)
(PID.TID 0000.0001) Tile  107(proc =   1)recv to points i=  -1:   0, j=  -1:   6from tile 106(proc =   1)
(PID.TID 0000.0001) Tile  108(proc =   1)recv to points i=   0:   9, j=   5:   6from tile 112(proc =   1)
(PID.TID 0000.0001) Tile  108(proc =   1)recv to points i=  -1:  10, j=  -1:   0from tile 104(proc =   1)
(PID.TID 0000.0001) Tile  108(proc =   1)recv to points i=   9:  10, j=  -1:   6from tile 163(proc =   1)
(PID.TID 0000.0001) Tile  108(proc =   1)recv to points i=  -1:   0, j=  -1:   6from tile 107(proc =   1)
(PID.TID 0000.0001) Tile  109(proc =   1)recv to points i=   0:   9, j=   5:   6from tile 113(proc =   1)
(PID.TID 0000.0001) Tile  109(proc =   1)recv to points i=  -1:  10, j=  -1:   0from tile 105(proc =   1)
(PID.TID 0000.0001) Tile  109(proc =   1)recv to points i=   9:  10, j=  -1:   6from tile 110(proc =   1)
(PID.TID 0000.0001) Tile  109(proc =   1)recv to points i=  -1:   0, j=  -1:   6from tile  80(proc =   1)
(PID.TID 0000.0001) Tile  110(proc =   1)recv to points i=   0:   9, j=   5:   6from tile 114(proc =   1)
(PID.TID 0000.0001) Tile  110(proc =   1)recv to points i=  -1:  10, j=  -1:   0from tile 106(proc =   1)
(PID.TID 0000.0001) Tile  110(proc =   1)recv to points i=   9:  10, j=  -1:   6from tile 111(proc =   1)
(PID.TID 0000.0001) Tile  110(proc =   1)recv to points i=  -1:   0, j=  -1:   6from tile 109(proc =   1)
(PID.TID 0000.0001) Tile  111(proc =   1)recv to points i=   0:   9, j=   5:   6from tile 115(proc =   1)
(PID.TID 0000.0001) Tile  111(proc =   1)recv to points i=  -1:  10, j=  -1:   0from tile 107(proc =   1)
(PID.TID 0000.0001) Tile  111(proc =   1)recv to points i=   9:  10, j=  -1:   6from tile 112(proc =   1)
(PID.TID 0000.0001) Tile  111(proc =   1)recv to points i=  -1:   0, j=  -1:   6from tile 110(proc =   1)
(PID.TID 0000.0001) Tile  112(proc =   1)recv to points i=   0:   9, j=   5:   6from tile 116(proc =   1)
(PID.TID 0000.0001) Tile  112(proc =   1)recv to points i=  -1:  10, j=  -1:   0from tile 108(proc =   1)
(PID.TID 0000.0001) Tile  112(proc =   1)recv to points i=   9:  10, j=  -1:   6from tile 163(proc =   1)
(PID.TID 0000.0001) Tile  112(proc =   1)recv to points i=  -1:   0, j=  -1:   6from tile 111(proc =   1)
(PID.TID 0000.0001) Tile  113(proc =   1)recv to points i=   0:   9, j=   5:   6from tile 117(proc =   1)
(PID.TID 0000.0001) Tile  113(proc =   1)recv to points i=  -1:  10, j=  -1:   0from tile 109(proc =   1)
(PID.TID 0000.0001) Tile  113(proc =   1)recv to points i=   9:  10, j=  -1:   6from tile 114(proc =   1)
(PID.TID 0000.0001) Tile  113(proc =   1)recv to points i=  -1:   0, j=  -1:   6from tile  84(proc =   1)
(PID.TID 0000.0001) Tile  114(proc =   1)recv to points i=   0:   9, j=   5:   6from tile 118(proc =   1)
(PID.TID 0000.0001) Tile  114(proc =   1)recv to points i=  -1:  10, j=  -1:   0from tile 110(proc =   1)
(PID.TID 0000.0001) Tile  114(proc =   1)recv to points i=   9:  10, j=  -1:   6from tile 115(proc =   1)
(PID.TID 0000.0001) Tile  114(proc =   1)recv to points i=  -1:   0, j=  -1:   6from tile 113(proc =   1)
(PID.TID 0000.0001) Tile  115(proc =   1)recv to points i=   0:   9, j=   5:   6from tile 119(proc =   1)
(PID.TID 0000.0001) Tile  115(proc =   1)recv to points i=  -1:  10, j=  -1:   0from tile 111(proc =   1)
(PID.TID 0000.0001) Tile  115(proc =   1)recv to points i=   9:  10, j=  -1:   6from tile 116(proc =   1)
(PID.TID 0000.0001) Tile  115(proc =   1)recv to points i=  -1:   0, j=  -1:   6from tile 114(proc =   1)
(PID.TID 0000.0001) Tile  116(proc =   1)recv to points i=   0:   9, j=   5:   6from tile 120(proc =   1)
(PID.TID 0000.0001) Tile  116(proc =   1)recv to points i=  -1:  10, j=  -1:   0from tile 112(proc =   1)
(PID.TID 0000.0001) Tile  116(proc =   1)recv to points i=   9:  10, j=  -1:   6from tile 162(proc =   1)
(PID.TID 0000.0001) Tile  116(proc =   1)recv to points i=  -1:   0, j=  -1:   6from tile 115(proc =   1)
(PID.TID 0000.0001) Tile  117(proc =   1)recv to points i=   0:   9, j=   5:   6from tile 121(proc =   1)
(PID.TID 0000.0001) Tile  117(proc =   1)recv to points i=  -1:  10, j=  -1:   0from tile 113(proc =   1)
(PID.TID 0000.0001) Tile  117(proc =   1)recv to points i=   9:  10, j=  -1:   6from tile 118(proc =   1)
(PID.TID 0000.0001) Tile  117(proc =   1)recv to points i=  -1:   0, j=  -1:   6from tile  88(proc =   1)
(PID.TID 0000.0001) Tile  118(proc =   1)recv to points i=   0:   9, j=   5:   6from tile 122(proc =   1)
(PID.TID 0000.0001) Tile  118(proc =   1)recv to points i=  -1:  10, j=  -1:   0from tile 114(proc =   1)
(PID.TID 0000.0001) Tile  118(proc =   1)recv to points i=   9:  10, j=  -1:   6from tile 119(proc =   1)
(PID.TID 0000.0001) Tile  118(proc =   1)recv to points i=  -1:   0, j=  -1:   6from tile 117(proc =   1)
(PID.TID 0000.0001) Tile  119(proc =   1)recv to points i=   0:   9, j=   5:   6from tile 123(proc =   1)
(PID.TID 0000.0001) Tile  119(proc =   1)recv to points i=  -1:  10, j=  -1:   0from tile 115(proc =   1)
(PID.TID 0000.0001) Tile  119(proc =   1)recv to points i=   9:  10, j=  -1:   6from tile 120(proc =   1)
(PID.TID 0000.0001) Tile  119(proc =   1)recv to points i=  -1:   0, j=  -1:   6from tile 118(proc =   1)
(PID.TID 0000.0001) Tile  120(proc =   1)recv to points i=   0:   9, j=   5:   6from tile 124(proc =   1)
(PID.TID 0000.0001) Tile  120(proc =   1)recv to points i=  -1:  10, j=  -1:   0from tile 116(proc =   1)
(PID.TID 0000.0001) Tile  120(proc =   1)recv to points i=   9:  10, j=  -1:   6from tile 162(proc =   1)
(PID.TID 0000.0001) Tile  120(proc =   1)recv to points i=  -1:   0, j=  -1:   6from tile 119(proc =   1)
(PID.TID 0000.0001) Tile  121(proc =   1)recv to points i=   0:   9, j=   5:   6from tile 125(proc =   1)
(PID.TID 0000.0001) Tile  121(proc =   1)recv to points i=  -1:  10, j=  -1:   0from tile 117(proc =   1)
(PID.TID 0000.0001) Tile  121(proc =   1)recv to points i=   9:  10, j=  -1:   6from tile 122(proc =   1)
(PID.TID 0000.0001) Tile  121(proc =   1)recv to points i=  -1:   0, j=  -1:   6from tile  92(proc =   1)
(PID.TID 0000.0001) Tile  122(proc =   1)recv to points i=   0:   9, j=   5:   6from tile 126(proc =   1)
(PID.TID 0000.0001) Tile  122(proc =   1)recv to points i=  -1:  10, j=  -1:   0from tile 118(proc =   1)
(PID.TID 0000.0001) Tile  122(proc =   1)recv to points i=   9:  10, j=  -1:   6from tile 123(proc =   1)
(PID.TID 0000.0001) Tile  122(proc =   1)recv to points i=  -1:   0, j=  -1:   6from tile 121(proc =   1)
(PID.TID 0000.0001) Tile  123(proc =   1)recv to points i=   0:   9, j=   5:   6from tile 127(proc =   1)
(PID.TID 0000.0001) Tile  123(proc =   1)recv to points i=  -1:  10, j=  -1:   0from tile 119(proc =   1)
(PID.TID 0000.0001) Tile  123(proc =   1)recv to points i=   9:  10, j=  -1:   6from tile 124(proc =   1)
(PID.TID 0000.0001) Tile  123(proc =   1)recv to points i=  -1:   0, j=  -1:   6from tile 122(proc =   1)
(PID.TID 0000.0001) Tile  124(proc =   1)recv to points i=   0:   9, j=   5:   6from tile 128(proc =   1)
(PID.TID 0000.0001) Tile  124(proc =   1)recv to points i=  -1:  10, j=  -1:   0from tile 120(proc =   1)
(PID.TID 0000.0001) Tile  124(proc =   1)recv to points i=   9:  10, j=  -1:   6from tile 161(proc =   1)
(PID.TID 0000.0001) Tile  124(proc =   1)recv to points i=  -1:   0, j=  -1:   6from tile 123(proc =   1)
(PID.TID 0000.0001) Tile  125(proc =   1)recv to points i=  -1:  10, j=   5:   6from tile 129(proc =   1)
(PID.TID 0000.0001) Tile  125(proc =   1)recv to points i=  -1:  10, j=  -1:   0from tile 121(proc =   1)
(PID.TID 0000.0001) Tile  125(proc =   1)recv to points i=   9:  10, j=  -1:   6from tile 126(proc =   1)
(PID.TID 0000.0001) Tile  125(proc =   1)recv to points i=  -1:   0, j=  -1:   6from tile  96(proc =   1)
(PID.TID 0000.0001) Tile  126(proc =   1)recv to points i=  -1:  10, j=   5:   6from tile 130(proc =   1)
(PID.TID 0000.0001) Tile  126(proc =   1)recv to points i=  -1:  10, j=  -1:   0from tile 122(proc =   1)
(PID.TID 0000.0001) Tile  126(proc =   1)recv to points i=   9:  10, j=  -1:   6from tile 127(proc =   1)
(PID.TID 0000.0001) Tile  126(proc =   1)recv to points i=  -1:   0, j=  -1:   6from tile 125(proc =   1)
(PID.TID 0000.0001) Tile  127(proc =   1)recv to points i=  -1:  10, j=   5:   6from tile 131(proc =   1)
(PID.TID 0000.0001) Tile  127(proc =   1)recv to points i=  -1:  10, j=  -1:   0from tile 123(proc =   1)
(PID.TID 0000.0001) Tile  127(proc =   1)recv to points i=   9:  10, j=  -1:   6from tile 128(proc =   1)
(PID.TID 0000.0001) Tile  127(proc =   1)recv to points i=  -1:   0, j=  -1:   6from tile 126(proc =   1)
(PID.TID 0000.0001) Tile  128(proc =   1)recv to points i=  -1:  10, j=   5:   6from tile 132(proc =   1)
(PID.TID 0000.0001) Tile  128(proc =   1)recv to points i=  -1:  10, j=  -1:   0from tile 124(proc =   1)
(PID.TID 0000.0001) Tile  128(proc =   1)recv to points i=   9:  10, j=  -1:   6from tile 161(proc =   1)
(PID.TID 0000.0001) Tile  128(proc =   1)recv to points i=  -1:   0, j=  -1:   6from tile 127(proc =   1)
(PID.TID 0000.0001) Tile  129(proc =   1)recv to points i=   0:   9, j=   5:   6from tile 133(proc =   1)
(PID.TID 0000.0001) Tile  129(proc =   1)recv to points i=  -1:  10, j=  -1:   0from tile 125(proc =   1)
(PID.TID 0000.0001) Tile  129(proc =   1)recv to points i=   9:  10, j=  -1:   6from tile 130(proc =   1)
(PID.TID 0000.0001) Tile  129(proc =   1)recv to points i=  -1:   0, j=  -1:   6from tile  96(proc =   1)
(PID.TID 0000.0001) Tile  130(proc =   1)recv to points i=   0:   9, j=   5:   6from tile 134(proc =   1)
(PID.TID 0000.0001) Tile  130(proc =   1)recv to points i=  -1:  10, j=  -1:   0from tile 126(proc =   1)
(PID.TID 0000.0001) Tile  130(proc =   1)recv to points i=   9:  10, j=  -1:   6from tile 131(proc =   1)
(PID.TID 0000.0001) Tile  130(proc =   1)recv to points i=  -1:   0, j=  -1:   6from tile 129(proc =   1)
(PID.TID 0000.0001) Tile  131(proc =   1)recv to points i=   0:   9, j=   5:   6from tile 135(proc =   1)
(PID.TID 0000.0001) Tile  131(proc =   1)recv to points i=  -1:  10, j=  -1:   0from tile 127(proc =   1)
(PID.TID 0000.0001) Tile  131(proc =   1)recv to points i=   9:  10, j=  -1:   6from tile 132(proc =   1)
(PID.TID 0000.0001) Tile  131(proc =   1)recv to points i=  -1:   0, j=  -1:   6from tile 130(proc =   1)
(PID.TID 0000.0001) Tile  132(proc =   1)recv to points i=   0:   9, j=   5:   6from tile 136(proc =   1)
(PID.TID 0000.0001) Tile  132(proc =   1)recv to points i=  -1:  10, j=  -1:   0from tile 128(proc =   1)
(PID.TID 0000.0001) Tile  132(proc =   1)recv to points i=   9:  10, j=  -1:   6from tile 161(proc =   1)
(PID.TID 0000.0001) Tile  132(proc =   1)recv to points i=  -1:   0, j=  -1:   6from tile 131(proc =   1)
(PID.TID 0000.0001) Tile  133(proc =   1)recv to points i=   0:   9, j=   5:   6from tile 137(proc =   1)
(PID.TID 0000.0001) Tile  133(proc =   1)recv to points i=  -1:  10, j=  -1:   0from tile 129(proc =   1)
(PID.TID 0000.0001) Tile  133(proc =   1)recv to points i=   9:  10, j=  -1:   6from tile 134(proc =   1)
(PID.TID 0000.0001) Tile  133(proc =   1)recv to points i=  -1:   0, j=  -1:   6from tile  96(proc =   1)
(PID.TID 0000.0001) Tile  134(proc =   1)recv to points i=   0:   9, j=   5:   6from tile 138(proc =   1)
(PID.TID 0000.0001) Tile  134(proc =   1)recv to points i=  -1:  10, j=  -1:   0from tile 130(proc =   1)
(PID.TID 0000.0001) Tile  134(proc =   1)recv to points i=   9:  10, j=  -1:   6from tile 135(proc =   1)
(PID.TID 0000.0001) Tile  134(proc =   1)recv to points i=  -1:   0, j=  -1:   6from tile 133(proc =   1)
(PID.TID 0000.0001) Tile  135(proc =   1)recv to points i=   0:   9, j=   5:   6from tile 139(proc =   1)
(PID.TID 0000.0001) Tile  135(proc =   1)recv to points i=  -1:  10, j=  -1:   0from tile 131(proc =   1)
(PID.TID 0000.0001) Tile  135(proc =   1)recv to points i=   9:  10, j=  -1:   6from tile 136(proc =   1)
(PID.TID 0000.0001) Tile  135(proc =   1)recv to points i=  -1:   0, j=  -1:   6from tile 134(proc =   1)
(PID.TID 0000.0001) Tile  136(proc =   1)recv to points i=   0:   9, j=   5:   6from tile 140(proc =   1)
(PID.TID 0000.0001) Tile  136(proc =   1)recv to points i=  -1:  10, j=  -1:   0from tile 132(proc =   1)
(PID.TID 0000.0001) Tile  136(proc =   1)recv to points i=   9:  10, j=  -1:   6from tile 165(proc =   1)
(PID.TID 0000.0001) Tile  136(proc =   1)recv to points i=  -1:   0, j=  -1:   6from tile 135(proc =   1)
(PID.TID 0000.0001) Tile  137(proc =   1)recv to points i=   0:   9, j=   5:   6from tile 141(proc =   1)
(PID.TID 0000.0001) Tile  137(proc =   1)recv to points i=  -1:  10, j=  -1:   0from tile 133(proc =   1)
(PID.TID 0000.0001) Tile  137(proc =   1)recv to points i=   9:  10, j=  -1:   6from tile 138(proc =   1)
(PID.TID 0000.0001) Tile  137(proc =   1)recv to points i=  -1:   0, j=  -1:   6from tile  95(proc =   1)
(PID.TID 0000.0001) Tile  138(proc =   1)recv to points i=   0:   9, j=   5:   6from tile 142(proc =   1)
(PID.TID 0000.0001) Tile  138(proc =   1)recv to points i=  -1:  10, j=  -1:   0from tile 134(proc =   1)
(PID.TID 0000.0001) Tile  138(proc =   1)recv to points i=   9:  10, j=  -1:   6from tile 139(proc =   1)
(PID.TID 0000.0001) Tile  138(proc =   1)recv to points i=  -1:   0, j=  -1:   6from tile 137(proc =   1)
(PID.TID 0000.0001) Tile  139(proc =   1)recv to points i=   0:   9, j=   5:   6from tile 143(proc =   1)
(PID.TID 0000.0001) Tile  139(proc =   1)recv to points i=  -1:  10, j=  -1:   0from tile 135(proc =   1)
(PID.TID 0000.0001) Tile  139(proc =   1)recv to points i=   9:  10, j=  -1:   6from tile 140(proc =   1)
(PID.TID 0000.0001) Tile  139(proc =   1)recv to points i=  -1:   0, j=  -1:   6from tile 138(proc =   1)
(PID.TID 0000.0001) Tile  140(proc =   1)recv to points i=   0:   9, j=   5:   6from tile 144(proc =   1)
(PID.TID 0000.0001) Tile  140(proc =   1)recv to points i=  -1:  10, j=  -1:   0from tile 136(proc =   1)
(PID.TID 0000.0001) Tile  140(proc =   1)recv to points i=   9:  10, j=  -1:   6from tile 169(proc =   1)
(PID.TID 0000.0001) Tile  140(proc =   1)recv to points i=  -1:   0, j=  -1:   6from tile 139(proc =   1)
(PID.TID 0000.0001) Tile  141(proc =   1)recv to points i=   0:   9, j=   5:   6from tile 145(proc =   1)
(PID.TID 0000.0001) Tile  141(proc =   1)recv to points i=  -1:  10, j=  -1:   0from tile 137(proc =   1)
(PID.TID 0000.0001) Tile  141(proc =   1)recv to points i=   9:  10, j=  -1:   6from tile 142(proc =   1)
(PID.TID 0000.0001) Tile  141(proc =   1)recv to points i=  -1:   0, j=  -1:   6from tile  95(proc =   1)
(PID.TID 0000.0001) Tile  142(proc =   1)recv to points i=   0:   9, j=   5:   6from tile 146(proc =   1)
(PID.TID 0000.0001) Tile  142(proc =   1)recv to points i=  -1:  10, j=  -1:   0from tile 138(proc =   1)
(PID.TID 0000.0001) Tile  142(proc =   1)recv to points i=   9:  10, j=  -1:   6from tile 143(proc =   1)
(PID.TID 0000.0001) Tile  142(proc =   1)recv to points i=  -1:   0, j=  -1:   6from tile 141(proc =   1)
(PID.TID 0000.0001) Tile  143(proc =   1)recv to points i=   0:   9, j=   5:   6from tile 147(proc =   1)
(PID.TID 0000.0001) Tile  143(proc =   1)recv to points i=  -1:  10, j=  -1:   0from tile 139(proc =   1)
(PID.TID 0000.0001) Tile  143(proc =   1)recv to points i=   9:  10, j=  -1:   6from tile 144(proc =   1)
(PID.TID 0000.0001) Tile  143(proc =   1)recv to points i=  -1:   0, j=  -1:   6from tile 142(proc =   1)
(PID.TID 0000.0001) Tile  144(proc =   1)recv to points i=   0:   9, j=   5:   6from tile 148(proc =   1)
(PID.TID 0000.0001) Tile  144(proc =   1)recv to points i=  -1:  10, j=  -1:   0from tile 140(proc =   1)
(PID.TID 0000.0001) Tile  144(proc =   1)recv to points i=   9:  10, j=  -1:   6from tile 173(proc =   1)
(PID.TID 0000.0001) Tile  144(proc =   1)recv to points i=  -1:   0, j=  -1:   6from tile 143(proc =   1)
(PID.TID 0000.0001) Tile  145(proc =   1)recv to points i=   0:   9, j=   5:   6from tile 149(proc =   1)
(PID.TID 0000.0001) Tile  145(proc =   1)recv to points i=  -1:  10, j=  -1:   0from tile 141(proc =   1)
(PID.TID 0000.0001) Tile  145(proc =   1)recv to points i=   9:  10, j=  -1:   6from tile 146(proc =   1)
(PID.TID 0000.0001) Tile  145(proc =   1)recv to points i=  -1:   0, j=  -1:   6from tile  94(proc =   1)
(PID.TID 0000.0001) Tile  146(proc =   1)recv to points i=   0:   9, j=   5:   6from tile 150(proc =   1)
(PID.TID 0000.0001) Tile  146(proc =   1)recv to points i=  -1:  10, j=  -1:   0from tile 142(proc =   1)
(PID.TID 0000.0001) Tile  146(proc =   1)recv to points i=   9:  10, j=  -1:   6from tile 147(proc =   1)
(PID.TID 0000.0001) Tile  146(proc =   1)recv to points i=  -1:   0, j=  -1:   6from tile 145(proc =   1)
(PID.TID 0000.0001) Tile  147(proc =   1)recv to points i=   0:   9, j=   5:   6from tile 151(proc =   1)
(PID.TID 0000.0001) Tile  147(proc =   1)recv to points i=  -1:  10, j=  -1:   0from tile 143(proc =   1)
(PID.TID 0000.0001) Tile  147(proc =   1)recv to points i=   9:  10, j=  -1:   6from tile 148(proc =   1)
(PID.TID 0000.0001) Tile  147(proc =   1)recv to points i=  -1:   0, j=  -1:   6from tile 146(proc =   1)
(PID.TID 0000.0001) Tile  148(proc =   1)recv to points i=   0:   9, j=   5:   6from tile 152(proc =   1)
(PID.TID 0000.0001) Tile  148(proc =   1)recv to points i=  -1:  10, j=  -1:   0from tile 144(proc =   1)
(PID.TID 0000.0001) Tile  148(proc =   1)recv to points i=   9:  10, j=  -1:   6from tile 177(proc =   1)
(PID.TID 0000.0001) Tile  148(proc =   1)recv to points i=  -1:   0, j=  -1:   6from tile 147(proc =   1)
(PID.TID 0000.0001) Tile  149(proc =   1)recv to points i=   0:   9, j=   5:   6from tile 153(proc =   1)
(PID.TID 0000.0001) Tile  149(proc =   1)recv to points i=  -1:  10, j=  -1:   0from tile 145(proc =   1)
(PID.TID 0000.0001) Tile  149(proc =   1)recv to points i=   9:  10, j=  -1:   6from tile 150(proc =   1)
(PID.TID 0000.0001) Tile  149(proc =   1)recv to points i=  -1:   0, j=  -1:   6from tile  94(proc =   1)
(PID.TID 0000.0001) Tile  150(proc =   1)recv to points i=   0:   9, j=   5:   6from tile 154(proc =   1)
(PID.TID 0000.0001) Tile  150(proc =   1)recv to points i=  -1:  10, j=  -1:   0from tile 146(proc =   1)
(PID.TID 0000.0001) Tile  150(proc =   1)recv to points i=   9:  10, j=  -1:   6from tile 151(proc =   1)
(PID.TID 0000.0001) Tile  150(proc =   1)recv to points i=  -1:   0, j=  -1:   6from tile 149(proc =   1)
(PID.TID 0000.0001) Tile  151(proc =   1)recv to points i=   0:   9, j=   5:   6from tile 155(proc =   1)
(PID.TID 0000.0001) Tile  151(proc =   1)recv to points i=  -1:  10, j=  -1:   0from tile 147(proc =   1)
(PID.TID 0000.0001) Tile  151(proc =   1)recv to points i=   9:  10, j=  -1:   6from tile 152(proc =   1)
(PID.TID 0000.0001) Tile  151(proc =   1)recv to points i=  -1:   0, j=  -1:   6from tile 150(proc =   1)
(PID.TID 0000.0001) Tile  152(proc =   1)recv to points i=   0:   9, j=   5:   6from tile 156(proc =   1)
(PID.TID 0000.0001) Tile  152(proc =   1)recv to points i=  -1:  10, j=  -1:   0from tile 148(proc =   1)
(PID.TID 0000.0001) Tile  152(proc =   1)recv to points i=   9:  10, j=  -1:   6from tile 181(proc =   1)
(PID.TID 0000.0001) Tile  152(proc =   1)recv to points i=  -1:   0, j=  -1:   6from tile 151(proc =   1)
(PID.TID 0000.0001) Tile  153(proc =   1)recv to points i=   0:   9, j=   5:   6from tile 157(proc =   1)
(PID.TID 0000.0001) Tile  153(proc =   1)recv to points i=  -1:  10, j=  -1:   0from tile 149(proc =   1)
(PID.TID 0000.0001) Tile  153(proc =   1)recv to points i=   9:  10, j=  -1:   6from tile 154(proc =   1)
(PID.TID 0000.0001) Tile  153(proc =   1)recv to points i=  -1:   0, j=  -1:   6from tile  93(proc =   1)
(PID.TID 0000.0001) Tile  154(proc =   1)recv to points i=   0:   9, j=   5:   6from tile 158(proc =   1)
(PID.TID 0000.0001) Tile  154(proc =   1)recv to points i=  -1:  10, j=  -1:   0from tile 150(proc =   1)
(PID.TID 0000.0001) Tile  154(proc =   1)recv to points i=   9:  10, j=  -1:   6from tile 155(proc =   1)
(PID.TID 0000.0001) Tile  154(proc =   1)recv to points i=  -1:   0, j=  -1:   6from tile 153(proc =   1)
(PID.TID 0000.0001) Tile  155(proc =   1)recv to points i=   0:   9, j=   5:   6from tile 159(proc =   1)
(PID.TID 0000.0001) Tile  155(proc =   1)recv to points i=  -1:  10, j=  -1:   0from tile 151(proc =   1)
(PID.TID 0000.0001) Tile  155(proc =   1)recv to points i=   9:  10, j=  -1:   6from tile 156(proc =   1)
(PID.TID 0000.0001) Tile  155(proc =   1)recv to points i=  -1:   0, j=  -1:   6from tile 154(proc =   1)
(PID.TID 0000.0001) Tile  156(proc =   1)recv to points i=   0:   9, j=   5:   6from tile 160(proc =   1)
(PID.TID 0000.0001) Tile  156(proc =   1)recv to points i=  -1:  10, j=  -1:   0from tile 152(proc =   1)
(PID.TID 0000.0001) Tile  156(proc =   1)recv to points i=   9:  10, j=  -1:   6from tile 185(proc =   1)
(PID.TID 0000.0001) Tile  156(proc =   1)recv to points i=  -1:   0, j=  -1:   6from tile 155(proc =   1)
(PID.TID 0000.0001) Tile  157(proc =   1)recv to points i=   3:  10, j=   5:   6from tile  25(proc =   1)
(PID.TID 0000.0001) Tile  157(proc =   1)recv to points i=  -1:   6, j=   5:   6from tile  29(proc =   1)
(PID.TID 0000.0001) Tile  157(proc =   1)recv to points i=  -1:  10, j=  -1:   0from tile 153(proc =   1)
(PID.TID 0000.0001) Tile  157(proc =   1)recv to points i=   9:  10, j=  -1:   6from tile 158(proc =   1)
(PID.TID 0000.0001) Tile  157(proc =   1)recv to points i=  -1:   0, j=  -1:   6from tile  93(proc =   1)
(PID.TID 0000.0001) Tile  158(proc =   1)recv to points i=   3:  10, j=   5:   6from tile  17(proc =   1)
(PID.TID 0000.0001) Tile  158(proc =   1)recv to points i=  -1:   6, j=   5:   6from tile  21(proc =   1)
(PID.TID 0000.0001) Tile  158(proc =   1)recv to points i=  -1:  10, j=  -1:   0from tile 154(proc =   1)
(PID.TID 0000.0001) Tile  158(proc =   1)recv to points i=   9:  10, j=  -1:   6from tile 159(proc =   1)
(PID.TID 0000.0001) Tile  158(proc =   1)recv to points i=  -1:   0, j=  -1:   6from tile 157(proc =   1)
(PID.TID 0000.0001) Tile  159(proc =   1)recv to points i=   3:  10, j=   5:   6from tile   9(proc =   1)
(PID.TID 0000.0001) Tile  159(proc =   1)recv to points i=  -1:   6, j=   5:   6from tile  13(proc =   1)
(PID.TID 0000.0001) Tile  159(proc =   1)recv to points i=  -1:  10, j=  -1:   0from tile 155(proc =   1)
(PID.TID 0000.0001) Tile  159(proc =   1)recv to points i=   9:  10, j=  -1:   6from tile 160(proc =   1)
(PID.TID 0000.0001) Tile  159(proc =   1)recv to points i=  -1:   0, j=  -1:   6from tile 158(proc =   1)
(PID.TID 0000.0001) Tile  160(proc =   1)recv to points i=   3:  10, j=   5:   6from tile   1(proc =   1)
(PID.TID 0000.0001) Tile  160(proc =   1)recv to points i=  -1:   6, j=   5:   6from tile   5(proc =   1)
(PID.TID 0000.0001) Tile  160(proc =   1)recv to points i=  -1:  10, j=  -1:   0from tile 156(proc =   1)
(PID.TID 0000.0001) Tile  160(proc =   1)recv to points i=   9:  10, j=  -1:   6from tile 189(proc =   1)
(PID.TID 0000.0001) Tile  160(proc =   1)recv to points i=  -1:   0, j=  -1:   6from tile 159(proc =   1)
(PID.TID 0000.0001) Tile  161(proc =   1)recv to points i=   0:   9, j=   5:   6from tile 165(proc =   1)
(PID.TID 0000.0001) Tile  161(proc =   1)recv to points i=   3:  10, j=  -1:   0from tile 124(proc =   1)
(PID.TID 0000.0001) Tile  161(proc =   1)recv to points i=  -1:   6, j=  -1:   0from tile 128(proc =   1)
(PID.TID 0000.0001) Tile  161(proc =   1)recv to points i=   9:  10, j=  -1:   6from tile 162(proc =   1)
(PID.TID 0000.0001) Tile  161(proc =   1)recv to points i=  -1:   0, j=  -1:   6from tile 132(proc =   1)
(PID.TID 0000.0001) Tile  162(proc =   1)recv to points i=   0:   9, j=   5:   6from tile 166(proc =   1)
(PID.TID 0000.0001) Tile  162(proc =   1)recv to points i=   3:  10, j=  -1:   0from tile 116(proc =   1)
(PID.TID 0000.0001) Tile  162(proc =   1)recv to points i=  -1:   6, j=  -1:   0from tile 120(proc =   1)
(PID.TID 0000.0001) Tile  162(proc =   1)recv to points i=   9:  10, j=  -1:   6from tile 163(proc =   1)
(PID.TID 0000.0001) Tile  162(proc =   1)recv to points i=  -1:   0, j=  -1:   6from tile 161(proc =   1)
(PID.TID 0000.0001) Tile  163(proc =   1)recv to points i=   0:   9, j=   5:   6from tile 167(proc =   1)
(PID.TID 0000.0001) Tile  163(proc =   1)recv to points i=   3:  10, j=  -1:   0from tile 108(proc =   1)
(PID.TID 0000.0001) Tile  163(proc =   1)recv to points i=  -1:   6, j=  -1:   0from tile 112(proc =   1)
(PID.TID 0000.0001) Tile  163(proc =   1)recv to points i=   9:  10, j=  -1:   6from tile 164(proc =   1)
(PID.TID 0000.0001) Tile  163(proc =   1)recv to points i=  -1:   0, j=  -1:   6from tile 162(proc =   1)
(PID.TID 0000.0001) Tile  164(proc =   1)recv to points i=   0:   9, j=   5:   6from tile 168(proc =   1)
(PID.TID 0000.0001) Tile  164(proc =   1)recv to points i=   3:  10, j=  -1:   0from tile 100(proc =   1)
(PID.TID 0000.0001) Tile  164(proc =   1)recv to points i=  -1:   6, j=  -1:   0from tile 104(proc =   1)
(PID.TID 0000.0001) Tile  164(proc =   1)recv to points i=   9:  10, j=  -1:   6from tile  36(proc =   1)
(PID.TID 0000.0001) Tile  164(proc =   1)recv to points i=  -1:   0, j=  -1:   6from tile 163(proc =   1)
(PID.TID 0000.0001) Tile  165(proc =   1)recv to points i=   0:   9, j=   5:   6from tile 169(proc =   1)
(PID.TID 0000.0001) Tile  165(proc =   1)recv to points i=  -1:  10, j=  -1:   0from tile 161(proc =   1)
(PID.TID 0000.0001) Tile  165(proc =   1)recv to points i=   9:  10, j=  -1:   6from tile 166(proc =   1)
(PID.TID 0000.0001) Tile  165(proc =   1)recv to points i=  -1:   0, j=  -1:   6from tile 136(proc =   1)
(PID.TID 0000.0001) Tile  166(proc =   1)recv to points i=   0:   9, j=   5:   6from tile 170(proc =   1)
(PID.TID 0000.0001) Tile  166(proc =   1)recv to points i=  -1:  10, j=  -1:   0from tile 162(proc =   1)
(PID.TID 0000.0001) Tile  166(proc =   1)recv to points i=   9:  10, j=  -1:   6from tile 167(proc =   1)
(PID.TID 0000.0001) Tile  166(proc =   1)recv to points i=  -1:   0, j=  -1:   6from tile 165(proc =   1)
(PID.TID 0000.0001) Tile  167(proc =   1)recv to points i=   0:   9, j=   5:   6from tile 171(proc =   1)
(PID.TID 0000.0001) Tile  167(proc =   1)recv to points i=  -1:  10, j=  -1:   0from tile 163(proc =   1)
(PID.TID 0000.0001) Tile  167(proc =   1)recv to points i=   9:  10, j=  -1:   6from tile 168(proc =   1)
(PID.TID 0000.0001) Tile  167(proc =   1)recv to points i=  -1:   0, j=  -1:   6from tile 166(proc =   1)
(PID.TID 0000.0001) Tile  168(proc =   1)recv to points i=   0:   9, j=   5:   6from tile 172(proc =   1)
(PID.TID 0000.0001) Tile  168(proc =   1)recv to points i=  -1:  10, j=  -1:   0from tile 164(proc =   1)
(PID.TID 0000.0001) Tile  168(proc =   1)recv to points i=   9:  10, j=  -1:   6from tile  36(proc =   1)
(PID.TID 0000.0001) Tile  168(proc =   1)recv to points i=  -1:   0, j=  -1:   6from tile 167(proc =   1)
(PID.TID 0000.0001) Tile  169(proc =   1)recv to points i=   0:   9, j=   5:   6from tile 173(proc =   1)
(PID.TID 0000.0001) Tile  169(proc =   1)recv to points i=  -1:  10, j=  -1:   0from tile 165(proc =   1)
(PID.TID 0000.0001) Tile  169(proc =   1)recv to points i=   9:  10, j=  -1:   6from tile 170(proc =   1)
(PID.TID 0000.0001) Tile  169(proc =   1)recv to points i=  -1:   0, j=  -1:   6from tile 140(proc =   1)
(PID.TID 0000.0001) Tile  170(proc =   1)recv to points i=   0:   9, j=   5:   6from tile 174(proc =   1)
(PID.TID 0000.0001) Tile  170(proc =   1)recv to points i=  -1:  10, j=  -1:   0from tile 166(proc =   1)
(PID.TID 0000.0001) Tile  170(proc =   1)recv to points i=   9:  10, j=  -1:   6from tile 171(proc =   1)
(PID.TID 0000.0001) Tile  170(proc =   1)recv to points i=  -1:   0, j=  -1:   6from tile 169(proc =   1)
(PID.TID 0000.0001) Tile  171(proc =   1)recv to points i=   0:   9, j=   5:   6from tile 175(proc =   1)
(PID.TID 0000.0001) Tile  171(proc =   1)recv to points i=  -1:  10, j=  -1:   0from tile 167(proc =   1)
(PID.TID 0000.0001) Tile  171(proc =   1)recv to points i=   9:  10, j=  -1:   6from tile 172(proc =   1)
(PID.TID 0000.0001) Tile  171(proc =   1)recv to points i=  -1:   0, j=  -1:   6from tile 170(proc =   1)
(PID.TID 0000.0001) Tile  172(proc =   1)recv to points i=   0:   9, j=   5:   6from tile 176(proc =   1)
(PID.TID 0000.0001) Tile  172(proc =   1)recv to points i=  -1:  10, j=  -1:   0from tile 168(proc =   1)
(PID.TID 0000.0001) Tile  172(proc =   1)recv to points i=   9:  10, j=  -1:   6from tile  35(proc =   1)
(PID.TID 0000.0001) Tile  172(proc =   1)recv to points i=  -1:   0, j=  -1:   6from tile 171(proc =   1)
(PID.TID 0000.0001) Tile  173(proc =   1)recv to points i=   0:   9, j=   5:   6from tile 177(proc =   1)
(PID.TID 0000.0001) Tile  173(proc =   1)recv to points i=  -1:  10, j=  -1:   0from tile 169(proc =   1)
(PID.TID 0000.0001) Tile  173(proc =   1)recv to points i=   9:  10, j=  -1:   6from tile 174(proc =   1)
(PID.TID 0000.0001) Tile  173(proc =   1)recv to points i=  -1:   0, j=  -1:   6from tile 144(proc =   1)
(PID.TID 0000.0001) Tile  174(proc =   1)recv to points i=   0:   9, j=   5:   6from tile 178(proc =   1)
(PID.TID 0000.0001) Tile  174(proc =   1)recv to points i=  -1:  10, j=  -1:   0from tile 170(proc =   1)
(PID.TID 0000.0001) Tile  174(proc =   1)recv to points i=   9:  10, j=  -1:   6from tile 175(proc =   1)
(PID.TID 0000.0001) Tile  174(proc =   1)recv to points i=  -1:   0, j=  -1:   6from tile 173(proc =   1)
(PID.TID 0000.0001) Tile  175(proc =   1)recv to points i=   0:   9, j=   5:   6from tile 179(proc =   1)
(PID.TID 0000.0001) Tile  175(proc =   1)recv to points i=  -1:  10, j=  -1:   0from tile 171(proc =   1)
(PID.TID 0000.0001) Tile  175(proc =   1)recv to points i=   9:  10, j=  -1:   6from tile 176(proc =   1)
(PID.TID 0000.0001) Tile  175(proc =   1)recv to points i=  -1:   0, j=  -1:   6from tile 174(proc =   1)
(PID.TID 0000.0001) Tile  176(proc =   1)recv to points i=   0:   9, j=   5:   6from tile 180(proc =   1)
(PID.TID 0000.0001) Tile  176(proc =   1)recv to points i=  -1:  10, j=  -1:   0from tile 172(proc =   1)
(PID.TID 0000.0001) Tile  176(proc =   1)recv to points i=   9:  10, j=  -1:   6from tile  35(proc =   1)
(PID.TID 0000.0001) Tile  176(proc =   1)recv to points i=  -1:   0, j=  -1:   6from tile 175(proc =   1)
(PID.TID 0000.0001) Tile  177(proc =   1)recv to points i=   0:   9, j=   5:   6from tile 181(proc =   1)
(PID.TID 0000.0001) Tile  177(proc =   1)recv to points i=  -1:  10, j=  -1:   0from tile 173(proc =   1)
(PID.TID 0000.0001) Tile  177(proc =   1)recv to points i=   9:  10, j=  -1:   6from tile 178(proc =   1)
(PID.TID 0000.0001) Tile  177(proc =   1)recv to points i=  -1:   0, j=  -1:   6from tile 148(proc =   1)
(PID.TID 0000.0001) Tile  178(proc =   1)recv to points i=   0:   9, j=   5:   6from tile 182(proc =   1)
(PID.TID 0000.0001) Tile  178(proc =   1)recv to points i=  -1:  10, j=  -1:   0from tile 174(proc =   1)
(PID.TID 0000.0001) Tile  178(proc =   1)recv to points i=   9:  10, j=  -1:   6from tile 179(proc =   1)
(PID.TID 0000.0001) Tile  178(proc =   1)recv to points i=  -1:   0, j=  -1:   6from tile 177(proc =   1)
(PID.TID 0000.0001) Tile  179(proc =   1)recv to points i=   0:   9, j=   5:   6from tile 183(proc =   1)
(PID.TID 0000.0001) Tile  179(proc =   1)recv to points i=  -1:  10, j=  -1:   0from tile 175(proc =   1)
(PID.TID 0000.0001) Tile  179(proc =   1)recv to points i=   9:  10, j=  -1:   6from tile 180(proc =   1)
(PID.TID 0000.0001) Tile  179(proc =   1)recv to points i=  -1:   0, j=  -1:   6from tile 178(proc =   1)
(PID.TID 0000.0001) Tile  180(proc =   1)recv to points i=   0:   9, j=   5:   6from tile 184(proc =   1)
(PID.TID 0000.0001) Tile  180(proc =   1)recv to points i=  -1:  10, j=  -1:   0from tile 176(proc =   1)
(PID.TID 0000.0001) Tile  180(proc =   1)recv to points i=   9:  10, j=  -1:   6from tile  34(proc =   1)
(PID.TID 0000.0001) Tile  180(proc =   1)recv to points i=  -1:   0, j=  -1:   6from tile 179(proc =   1)
(PID.TID 0000.0001) Tile  181(proc =   1)recv to points i=   0:   9, j=   5:   6from tile 185(proc =   1)
(PID.TID 0000.0001) Tile  181(proc =   1)recv to points i=  -1:  10, j=  -1:   0from tile 177(proc =   1)
(PID.TID 0000.0001) Tile  181(proc =   1)recv to points i=   9:  10, j=  -1:   6from tile 182(proc =   1)
(PID.TID 0000.0001) Tile  181(proc =   1)recv to points i=  -1:   0, j=  -1:   6from tile 152(proc =   1)
(PID.TID 0000.0001) Tile  182(proc =   1)recv to points i=   0:   9, j=   5:   6from tile 186(proc =   1)
(PID.TID 0000.0001) Tile  182(proc =   1)recv to points i=  -1:  10, j=  -1:   0from tile 178(proc =   1)
(PID.TID 0000.0001) Tile  182(proc =   1)recv to points i=   9:  10, j=  -1:   6from tile 183(proc =   1)
(PID.TID 0000.0001) Tile  182(proc =   1)recv to points i=  -1:   0, j=  -1:   6from tile 181(proc =   1)
(PID.TID 0000.0001) Tile  183(proc =   1)recv to points i=   0:   9, j=   5:   6from tile 187(proc =   1)
(PID.TID 0000.0001) Tile  183(proc =   1)recv to points i=  -1:  10, j=  -1:   0from tile 179(proc =   1)
(PID.TID 0000.0001) Tile  183(proc =   1)recv to points i=   9:  10, j=  -1:   6from tile 184(proc =   1)
(PID.TID 0000.0001) Tile  183(proc =   1)recv to points i=  -1:   0, j=  -1:   6from tile 182(proc =   1)
(PID.TID 0000.0001) Tile  184(proc =   1)recv to points i=   0:   9, j=   5:   6from tile 188(proc =   1)
(PID.TID 0000.0001) Tile  184(proc =   1)recv to points i=  -1:  10, j=  -1:   0from tile 180(proc =   1)
(PID.TID 0000.0001) Tile  184(proc =   1)recv to points i=   9:  10, j=  -1:   6from tile  34(proc =   1)
(PID.TID 0000.0001) Tile  184(proc =   1)recv to points i=  -1:   0, j=  -1:   6from tile 183(proc =   1)
(PID.TID 0000.0001) Tile  185(proc =   1)recv to points i=   0:   9, j=   5:   6from tile 189(proc =   1)
(PID.TID 0000.0001) Tile  185(proc =   1)recv to points i=  -1:  10, j=  -1:   0from tile 181(proc =   1)
(PID.TID 0000.0001) Tile  185(proc =   1)recv to points i=   9:  10, j=  -1:   6from tile 186(proc =   1)
(PID.TID 0000.0001) Tile  185(proc =   1)recv to points i=  -1:   0, j=  -1:   6from tile 156(proc =   1)
(PID.TID 0000.0001) Tile  186(proc =   1)recv to points i=   0:   9, j=   5:   6from tile 190(proc =   1)
(PID.TID 0000.0001) Tile  186(proc =   1)recv to points i=  -1:  10, j=  -1:   0from tile 182(proc =   1)
(PID.TID 0000.0001) Tile  186(proc =   1)recv to points i=   9:  10, j=  -1:   6from tile 187(proc =   1)
(PID.TID 0000.0001) Tile  186(proc =   1)recv to points i=  -1:   0, j=  -1:   6from tile 185(proc =   1)
(PID.TID 0000.0001) Tile  187(proc =   1)recv to points i=   0:   9, j=   5:   6from tile 191(proc =   1)
(PID.TID 0000.0001) Tile  187(proc =   1)recv to points i=  -1:  10, j=  -1:   0from tile 183(proc =   1)
(PID.TID 0000.0001) Tile  187(proc =   1)recv to points i=   9:  10, j=  -1:   6from tile 188(proc =   1)
(PID.TID 0000.0001) Tile  187(proc =   1)recv to points i=  -1:   0, j=  -1:   6from tile 186(proc =   1)
(PID.TID 0000.0001) Tile  188(proc =   1)recv to points i=   0:   9, j=   5:   6from tile 192(proc =   1)
(PID.TID 0000.0001) Tile  188(proc =   1)recv to points i=  -1:  10, j=  -1:   0from tile 184(proc =   1)
(PID.TID 0000.0001) Tile  188(proc =   1)recv to points i=   9:  10, j=  -1:   6from tile  33(proc =   1)
(PID.TID 0000.0001) Tile  188(proc =   1)recv to points i=  -1:   0, j=  -1:   6from tile 187(proc =   1)
(PID.TID 0000.0001) Tile  189(proc =   1)recv to points i=  -1:  10, j=   5:   6from tile   1(proc =   1)
(PID.TID 0000.0001) Tile  189(proc =   1)recv to points i=  -1:  10, j=  -1:   0from tile 185(proc =   1)
(PID.TID 0000.0001) Tile  189(proc =   1)recv to points i=   9:  10, j=  -1:   6from tile 190(proc =   1)
(PID.TID 0000.0001) Tile  189(proc =   1)recv to points i=  -1:   0, j=  -1:   6from tile 160(proc =   1)
(PID.TID 0000.0001) Tile  190(proc =   1)recv to points i=  -1:  10, j=   5:   6from tile   2(proc =   1)
(PID.TID 0000.0001) Tile  190(proc =   1)recv to points i=  -1:  10, j=  -1:   0from tile 186(proc =   1)
(PID.TID 0000.0001) Tile  190(proc =   1)recv to points i=   9:  10, j=  -1:   6from tile 191(proc =   1)
(PID.TID 0000.0001) Tile  190(proc =   1)recv to points i=  -1:   0, j=  -1:   6from tile 189(proc =   1)
(PID.TID 0000.0001) Tile  191(proc =   1)recv to points i=  -1:  10, j=   5:   6from tile   3(proc =   1)
(PID.TID 0000.0001) Tile  191(proc =   1)recv to points i=  -1:  10, j=  -1:   0from tile 187(proc =   1)
(PID.TID 0000.0001) Tile  191(proc =   1)recv to points i=   9:  10, j=  -1:   6from tile 192(proc =   1)
(PID.TID 0000.0001) Tile  191(proc =   1)recv to points i=  -1:   0, j=  -1:   6from tile 190(proc =   1)
(PID.TID 0000.0001) Tile  192(proc =   1)recv to points i=  -1:  10, j=   5:   6from tile   4(proc =   1)
(PID.TID 0000.0001) Tile  192(proc =   1)recv to points i=  -1:  10, j=  -1:   0from tile 188(proc =   1)
(PID.TID 0000.0001) Tile  192(proc =   1)recv to points i=   9:  10, j=  -1:   6from tile  33(proc =   1)
(PID.TID 0000.0001) Tile  192(proc =   1)recv to points i=  -1:   0, j=  -1:   6from tile 191(proc =   1)
(PID.TID 0000.0001) // =======================================================
(PID.TID 0000.0001) // Model parameter file "data"
(PID.TID 0000.0001) // =======================================================
(PID.TID 0000.0001) ># ====================
(PID.TID 0000.0001) ># | Model parameters |
(PID.TID 0000.0001) ># ====================
(PID.TID 0000.0001) >#
(PID.TID 0000.0001) ># Continuous equation parameters
(PID.TID 0000.0001) > &PARM01
(PID.TID 0000.0001) > tRef=15*20.,
(PID.TID 0000.0001) > sRef=15*35.,
(PID.TID 0000.0001) > viscAh =3.E5,
(PID.TID 0000.0001) > viscAr =1.E-3,
(PID.TID 0000.0001) > diffKhT=0.,
(PID.TID 0000.0001) > diffK4T=0.,
(PID.TID 0000.0001) > diffKrT=3.E-5,
(PID.TID 0000.0001) > diffKhS=0.,
(PID.TID 0000.0001) > diffK4S=0.,
(PID.TID 0000.0001) > diffKrS=3.E-5,
(PID.TID 0000.0001) > ivdc_kappa=10.,
(PID.TID 0000.0001) > implicitDiffusion=.TRUE.,
(PID.TID 0000.0001) > gravity=9.81,
(PID.TID 0000.0001) > rhonil=1035.,
(PID.TID 0000.0001) > eosType='JMD95Z',
(PID.TID 0000.0001) >#staggerTimeStep=.TRUE.,
(PID.TID 0000.0001) > vectorInvariantMomentum=.TRUE.,
(PID.TID 0000.0001) > implicitFreeSurface=.TRUE.,
(PID.TID 0000.0001) > exactConserv=.TRUE.,
(PID.TID 0000.0001) > select_rStar=2,
(PID.TID 0000.0001) > nonlinFreeSurf=4,
(PID.TID 0000.0001) > hFacInf=0.2,
(PID.TID 0000.0001) > hFacSup=2.0,
(PID.TID 0000.0001) > useRealFreshWaterFlux=.TRUE.,
(PID.TID 0000.0001) > allowFreezing=.TRUE.,
(PID.TID 0000.0001) > hFacMin=.1,
(PID.TID 0000.0001) > hFacMinDr=20.,
(PID.TID 0000.0001) > readBinaryPrec=64,
(PID.TID 0000.0001) > &
(PID.TID 0000.0001) >
(PID.TID 0000.0001) ># Elliptic solver parameters
(PID.TID 0000.0001) > &PARM02
(PID.TID 0000.0001) > cg2dMaxIters=200,
(PID.TID 0000.0001) >#cg2dTargetResidual=1.E-9,
(PID.TID 0000.0001) > cg2dTargetResWunit=1.E-14,
(PID.TID 0000.0001) > &
(PID.TID 0000.0001) >
(PID.TID 0000.0001) ># Time stepping parameters
(PID.TID 0000.0001) > &PARM03
(PID.TID 0000.0001) > nIter0=72000,
(PID.TID 0000.0001) > nTimeSteps=20,
(PID.TID 0000.0001) > deltaTmom   =1200.,
(PID.TID 0000.0001) > deltaTtracer=86400.,
(PID.TID 0000.0001) > deltaTfreesurf=86400.,
(PID.TID 0000.0001) > deltaTClock =86400.,
(PID.TID 0000.0001) > abEps = 0.1,
(PID.TID 0000.0001) > forcing_In_AB=.FALSE.,
(PID.TID 0000.0001) > pChkptFreq  =1728000.,
(PID.TID 0000.0001) >#chkptFreq   =311040000.,
(PID.TID 0000.0001) > taveFreq    =1244160000.,
(PID.TID 0000.0001) > dumpFreq    =622080000.,
(PID.TID 0000.0001) > monitorFreq =31104000.,
(PID.TID 0000.0001) > periodicExternalForcing=.TRUE.,
(PID.TID 0000.0001) > externForcingPeriod=2592000.,
(PID.TID 0000.0001) > externForcingCycle=31104000.,
(PID.TID 0000.0001) ># 2 months restoring timescale for temperature
(PID.TID 0000.0001) > tauThetaClimRelax = 5184000.,
(PID.TID 0000.0001) ># 2yrs restoring timescale for salinity
(PID.TID 0000.0001) > tauSaltClimRelax = 62208000.,
(PID.TID 0000.0001) > monitorFreq =1.,
(PID.TID 0000.0001) > &
(PID.TID 0000.0001) >
(PID.TID 0000.0001) ># Gridding parameters
(PID.TID 0000.0001) > &PARM04
(PID.TID 0000.0001) > usingCartesianGrid=.FALSE.,
(PID.TID 0000.0001) > usingSphericalPolarGrid=.FALSE.,
(PID.TID 0000.0001) > usingCurvilinearGrid=.TRUE.,
(PID.TID 0000.0001) > delR= 50., 70., 100., 140., 190.,
(PID.TID 0000.0001) >       240., 290., 340., 390., 440.,
(PID.TID 0000.0001) >       490., 540., 590., 640., 690.,
(PID.TID 0000.0001) > &
(PID.TID 0000.0001) >
(PID.TID 0000.0001) ># Input datasets
(PID.TID 0000.0001) > &PARM05
(PID.TID 0000.0001) > bathyFile      ='bathy_Hmin50.bin',
(PID.TID 0000.0001) > hydrogThetaFile='lev_T_cs_15k.bin',
(PID.TID 0000.0001) > hydrogSaltFile ='lev_S_cs_15k.bin',
(PID.TID 0000.0001) > zonalWindFile  ='trenberth_taux.bin',
(PID.TID 0000.0001) > meridWindFile  ='trenberth_tauy.bin',
(PID.TID 0000.0001) > thetaClimFile  ='lev_surfT_cs_12m.bin',
(PID.TID 0000.0001) > saltClimFile   ='lev_surfS_cs_12m.bin',
(PID.TID 0000.0001) > surfQFile      ='shiQnet_cs32.bin',
(PID.TID 0000.0001) > EmPmRFile      ='shiEmPR_cs32.bin',
(PID.TID 0000.0001) > &
(PID.TID 0000.0001) 
(PID.TID 0000.0001) S/R INI_PARMS ; read PARM01 : OK
(PID.TID 0000.0001) S/R INI_PARMS ; read PARM02 : OK
(PID.TID 0000.0001) S/R INI_PARMS ; read PARM03 : OK
(PID.TID 0000.0001) S/R INI_PARMS ; read PARM04 : OK
(PID.TID 0000.0001) S/R INI_PARMS ; read PARM05 : OK
(PID.TID 0000.0001) tile:   1 ; Read from file tile001.mitgrid
(PID.TID 0000.0001)   => XC YC DXF DYF RA XG YG DXV DYU RAZ DXC DYC RAW RAS DXG DYG
(PID.TID 0000.0001) tile:   2 ; Read from file tile001.mitgrid
(PID.TID 0000.0001)   => XC YC DXF DYF RA XG YG DXV DYU RAZ DXC DYC RAW RAS DXG DYG
(PID.TID 0000.0001) tile:   3 ; Read from file tile001.mitgrid
(PID.TID 0000.0001)   => XC YC DXF DYF RA XG YG DXV DYU RAZ DXC DYC RAW RAS DXG DYG
(PID.TID 0000.0001) tile:   4 ; Read from file tile001.mitgrid
(PID.TID 0000.0001)   => XC YC DXF DYF RA XG YG DXV DYU RAZ DXC DYC RAW RAS DXG DYG
(PID.TID 0000.0001) tile:   5 ; Read from file tile001.mitgrid
(PID.TID 0000.0001)   => XC YC DXF DYF RA XG YG DXV DYU RAZ DXC DYC RAW RAS DXG DYG
(PID.TID 0000.0001) tile:   6 ; Read from file tile001.mitgrid
(PID.TID 0000.0001)   => XC YC DXF DYF RA XG YG DXV DYU RAZ DXC DYC RAW RAS DXG DYG
(PID.TID 0000.0001) tile:   7 ; Read from file tile001.mitgrid
(PID.TID 0000.0001)   => XC YC DXF DYF RA XG YG DXV DYU RAZ DXC DYC RAW RAS DXG DYG
(PID.TID 0000.0001) tile:   8 ; Read from file tile001.mitgrid
(PID.TID 0000.0001)   => XC YC DXF DYF RA XG YG DXV DYU RAZ DXC DYC RAW RAS DXG DYG
(PID.TID 0000.0001) tile:   9 ; Read from file tile001.mitgrid
(PID.TID 0000.0001)   => XC YC DXF DYF RA XG YG DXV DYU RAZ DXC DYC RAW RAS DXG DYG
(PID.TID 0000.0001) tile:  10 ; Read from file tile001.mitgrid
(PID.TID 0000.0001)   => XC YC DXF DYF RA XG YG DXV DYU RAZ DXC DYC RAW RAS DXG DYG
(PID.TID 0000.0001) tile:  11 ; Read from file tile001.mitgrid
(PID.TID 0000.0001)   => XC YC DXF DYF RA XG YG DXV DYU RAZ DXC DYC RAW RAS DXG DYG
(PID.TID 0000.0001) tile:  12 ; Read from file tile001.mitgrid
(PID.TID 0000.0001)   => XC YC DXF DYF RA XG YG DXV DYU RAZ DXC DYC RAW RAS DXG DYG
(PID.TID 0000.0001) tile:  13 ; Read from file tile001.mitgrid
(PID.TID 0000.0001)   => XC YC DXF DYF RA XG YG DXV DYU RAZ DXC DYC RAW RAS DXG DYG
(PID.TID 0000.0001) tile:  14 ; Read from file tile001.mitgrid
(PID.TID 0000.0001)   => XC YC DXF DYF RA XG YG DXV DYU RAZ DXC DYC RAW RAS DXG DYG
(PID.TID 0000.0001) tile:  15 ; Read from file tile001.mitgrid
(PID.TID 0000.0001)   => XC YC DXF DYF RA XG YG DXV DYU RAZ DXC DYC RAW RAS DXG DYG
(PID.TID 0000.0001) tile:  16 ; Read from file tile001.mitgrid
(PID.TID 0000.0001)   => XC YC DXF DYF RA XG YG DXV DYU RAZ DXC DYC RAW RAS DXG DYG
(PID.TID 0000.0001) tile:  17 ; Read from file tile001.mitgrid
(PID.TID 0000.0001)   => XC YC DXF DYF RA XG YG DXV DYU RAZ DXC DYC RAW RAS DXG DYG
(PID.TID 0000.0001) tile:  18 ; Read from file tile001.mitgrid
(PID.TID 0000.0001)   => XC YC DXF DYF RA XG YG DXV DYU RAZ DXC DYC RAW RAS DXG DYG
(PID.TID 0000.0001) tile:  19 ; Read from file tile001.mitgrid
(PID.TID 0000.0001)   => XC YC DXF DYF RA XG YG DXV DYU RAZ DXC DYC RAW RAS DXG DYG
(PID.TID 0000.0001) tile:  20 ; Read from file tile001.mitgrid
(PID.TID 0000.0001)   => XC YC DXF DYF RA XG YG DXV DYU RAZ DXC DYC RAW RAS DXG DYG
(PID.TID 0000.0001) tile:  21 ; Read from file tile001.mitgrid
(PID.TID 0000.0001)   => XC YC DXF DYF RA XG YG DXV DYU RAZ DXC DYC RAW RAS DXG DYG
(PID.TID 0000.0001) tile:  22 ; Read from file tile001.mitgrid
(PID.TID 0000.0001)   => XC YC DXF DYF RA XG YG DXV DYU RAZ DXC DYC RAW RAS DXG DYG
(PID.TID 0000.0001) tile:  23 ; Read from file tile001.mitgrid
(PID.TID 0000.0001)   => XC YC DXF DYF RA XG YG DXV DYU RAZ DXC DYC RAW RAS DXG DYG
(PID.TID 0000.0001) tile:  24 ; Read from file tile001.mitgrid
(PID.TID 0000.0001)   => XC YC DXF DYF RA XG YG DXV DYU RAZ DXC DYC RAW RAS DXG DYG
(PID.TID 0000.0001) tile:  25 ; Read from file tile001.mitgrid
(PID.TID 0000.0001)   => XC YC DXF DYF RA XG YG DXV DYU RAZ DXC DYC RAW RAS DXG DYG
(PID.TID 0000.0001) tile:  26 ; Read from file tile001.mitgrid
(PID.TID 0000.0001)   => XC YC DXF DYF RA XG YG DXV DYU RAZ DXC DYC RAW RAS DXG DYG
(PID.TID 0000.0001) tile:  27 ; Read from file tile001.mitgrid
(PID.TID 0000.0001)   => XC YC DXF DYF RA XG YG DXV DYU RAZ DXC DYC RAW RAS DXG DYG
(PID.TID 0000.0001) tile:  28 ; Read from file tile001.mitgrid
(PID.TID 0000.0001)   => XC YC DXF DYF RA XG YG DXV DYU RAZ DXC DYC RAW RAS DXG DYG
(PID.TID 0000.0001) tile:  29 ; Read from file tile001.mitgrid
(PID.TID 0000.0001)   => XC YC DXF DYF RA XG YG DXV DYU RAZ DXC DYC RAW RAS DXG DYG
(PID.TID 0000.0001) tile:  30 ; Read from file tile001.mitgrid
(PID.TID 0000.0001)   => XC YC DXF DYF RA XG YG DXV DYU RAZ DXC DYC RAW RAS DXG DYG
(PID.TID 0000.0001) tile:  31 ; Read from file tile001.mitgrid
(PID.TID 0000.0001)   => XC YC DXF DYF RA XG YG DXV DYU RAZ DXC DYC RAW RAS DXG DYG
(PID.TID 0000.0001) tile:  32 ; Read from file tile001.mitgrid
(PID.TID 0000.0001)   => XC YC DXF DYF RA XG YG DXV DYU RAZ DXC DYC RAW RAS DXG DYG
(PID.TID 0000.0001) tile:  33 ; Read from file tile002.mitgrid
(PID.TID 0000.0001)   => XC YC DXF DYF RA XG YG DXV DYU RAZ DXC DYC RAW RAS DXG DYG
(PID.TID 0000.0001) tile:  34 ; Read from file tile002.mitgrid
(PID.TID 0000.0001)   => XC YC DXF DYF RA XG YG DXV DYU RAZ DXC DYC RAW RAS DXG DYG
(PID.TID 0000.0001) tile:  35 ; Read from file tile002.mitgrid
(PID.TID 0000.0001)   => XC YC DXF DYF RA XG YG DXV DYU RAZ DXC DYC RAW RAS DXG DYG
(PID.TID 0000.0001) tile:  36 ; Read from file tile002.mitgrid
(PID.TID 0000.0001)   => XC YC DXF DYF RA XG YG DXV DYU RAZ DXC DYC RAW RAS DXG DYG
(PID.TID 0000.0001) tile:  37 ; Read from file tile002.mitgrid
(PID.TID 0000.0001)   => XC YC DXF DYF RA XG YG DXV DYU RAZ DXC DYC RAW RAS DXG DYG
(PID.TID 0000.0001) tile:  38 ; Read from file tile002.mitgrid
(PID.TID 0000.0001)   => XC YC DXF DYF RA XG YG DXV DYU RAZ DXC DYC RAW RAS DXG DYG
(PID.TID 0000.0001) tile:  39 ; Read from file tile002.mitgrid
(PID.TID 0000.0001)   => XC YC DXF DYF RA XG YG DXV DYU RAZ DXC DYC RAW RAS DXG DYG
(PID.TID 0000.0001) tile:  40 ; Read from file tile002.mitgrid
(PID.TID 0000.0001)   => XC YC DXF DYF RA XG YG DXV DYU RAZ DXC DYC RAW RAS DXG DYG
(PID.TID 0000.0001) tile:  41 ; Read from file tile002.mitgrid
(PID.TID 0000.0001)   => XC YC DXF DYF RA XG YG DXV DYU RAZ DXC DYC RAW RAS DXG DYG
(PID.TID 0000.0001) tile:  42 ; Read from file tile002.mitgrid
(PID.TID 0000.0001)   => XC YC DXF DYF RA XG YG DXV DYU RAZ DXC DYC RAW RAS DXG DYG
(PID.TID 0000.0001) tile:  43 ; Read from file tile002.mitgrid
(PID.TID 0000.0001)   => XC YC DXF DYF RA XG YG DXV DYU RAZ DXC DYC RAW RAS DXG DYG
(PID.TID 0000.0001) tile:  44 ; Read from file tile002.mitgrid
(PID.TID 0000.0001)   => XC YC DXF DYF RA XG YG DXV DYU RAZ DXC DYC RAW RAS DXG DYG
(PID.TID 0000.0001) tile:  45 ; Read from file tile002.mitgrid
(PID.TID 0000.0001)   => XC YC DXF DYF RA XG YG DXV DYU RAZ DXC DYC RAW RAS DXG DYG
(PID.TID 0000.0001) tile:  46 ; Read from file tile002.mitgrid
(PID.TID 0000.0001)   => XC YC DXF DYF RA XG YG DXV DYU RAZ DXC DYC RAW RAS DXG DYG
(PID.TID 0000.0001) tile:  47 ; Read from file tile002.mitgrid
(PID.TID 0000.0001)   => XC YC DXF DYF RA XG YG DXV DYU RAZ DXC DYC RAW RAS DXG DYG
(PID.TID 0000.0001) tile:  48 ; Read from file tile002.mitgrid
(PID.TID 0000.0001)   => XC YC DXF DYF RA XG YG DXV DYU RAZ DXC DYC RAW RAS DXG DYG
(PID.TID 0000.0001) tile:  49 ; Read from file tile002.mitgrid
(PID.TID 0000.0001)   => XC YC DXF DYF RA XG YG DXV DYU RAZ DXC DYC RAW RAS DXG DYG
(PID.TID 0000.0001) tile:  50 ; Read from file tile002.mitgrid
(PID.TID 0000.0001)   => XC YC DXF DYF RA XG YG DXV DYU RAZ DXC DYC RAW RAS DXG DYG
(PID.TID 0000.0001) tile:  51 ; Read from file tile002.mitgrid
(PID.TID 0000.0001)   => XC YC DXF DYF RA XG YG DXV DYU RAZ DXC DYC RAW RAS DXG DYG
(PID.TID 0000.0001) tile:  52 ; Read from file tile002.mitgrid
(PID.TID 0000.0001)   => XC YC DXF DYF RA XG YG DXV DYU RAZ DXC DYC RAW RAS DXG DYG
(PID.TID 0000.0001) tile:  53 ; Read from file tile002.mitgrid
(PID.TID 0000.0001)   => XC YC DXF DYF RA XG YG DXV DYU RAZ DXC DYC RAW RAS DXG DYG
(PID.TID 0000.0001) tile:  54 ; Read from file tile002.mitgrid
(PID.TID 0000.0001)   => XC YC DXF DYF RA XG YG DXV DYU RAZ DXC DYC RAW RAS DXG DYG
(PID.TID 0000.0001) tile:  55 ; Read from file tile002.mitgrid
(PID.TID 0000.0001)   => XC YC DXF DYF RA XG YG DXV DYU RAZ DXC DYC RAW RAS DXG DYG
(PID.TID 0000.0001) tile:  56 ; Read from file tile002.mitgrid
(PID.TID 0000.0001)   => XC YC DXF DYF RA XG YG DXV DYU RAZ DXC DYC RAW RAS DXG DYG
(PID.TID 0000.0001) tile:  57 ; Read from file tile002.mitgrid
(PID.TID 0000.0001)   => XC YC DXF DYF RA XG YG DXV DYU RAZ DXC DYC RAW RAS DXG DYG
(PID.TID 0000.0001) tile:  58 ; Read from file tile002.mitgrid
(PID.TID 0000.0001)   => XC YC DXF DYF RA XG YG DXV DYU RAZ DXC DYC RAW RAS DXG DYG
(PID.TID 0000.0001) tile:  59 ; Read from file tile002.mitgrid
(PID.TID 0000.0001)   => XC YC DXF DYF RA XG YG DXV DYU RAZ DXC DYC RAW RAS DXG DYG
(PID.TID 0000.0001) tile:  60 ; Read from file tile002.mitgrid
(PID.TID 0000.0001)   => XC YC DXF DYF RA XG YG DXV DYU RAZ DXC DYC RAW RAS DXG DYG
(PID.TID 0000.0001) tile:  61 ; Read from file tile002.mitgrid
(PID.TID 0000.0001)   => XC YC DXF DYF RA XG YG DXV DYU RAZ DXC DYC RAW RAS DXG DYG
(PID.TID 0000.0001) tile:  62 ; Read from file tile002.mitgrid
(PID.TID 0000.0001)   => XC YC DXF DYF RA XG YG DXV DYU RAZ DXC DYC RAW RAS DXG DYG
(PID.TID 0000.0001) tile:  63 ; Read from file tile002.mitgrid
(PID.TID 0000.0001)   => XC YC DXF DYF RA XG YG DXV DYU RAZ DXC DYC RAW RAS DXG DYG
(PID.TID 0000.0001) tile:  64 ; Read from file tile002.mitgrid
(PID.TID 0000.0001)   => XC YC DXF DYF RA XG YG DXV DYU RAZ DXC DYC RAW RAS DXG DYG
(PID.TID 0000.0001) tile:  65 ; Read from file tile003.mitgrid
(PID.TID 0000.0001)   => XC YC DXF DYF RA XG YG DXV DYU RAZ DXC DYC RAW RAS DXG DYG
(PID.TID 0000.0001) tile:  66 ; Read from file tile003.mitgrid
(PID.TID 0000.0001)   => XC YC DXF DYF RA XG YG DXV DYU RAZ DXC DYC RAW RAS DXG DYG
(PID.TID 0000.0001) tile:  67 ; Read from file tile003.mitgrid
(PID.TID 0000.0001)   => XC YC DXF DYF RA XG YG DXV DYU RAZ DXC DYC RAW RAS DXG DYG
(PID.TID 0000.0001) tile:  68 ; Read from file tile003.mitgrid
(PID.TID 0000.0001)   => XC YC DXF DYF RA XG YG DXV DYU RAZ DXC DYC RAW RAS DXG DYG
(PID.TID 0000.0001) tile:  69 ; Read from file tile003.mitgrid
(PID.TID 0000.0001)   => XC YC DXF DYF RA XG YG DXV DYU RAZ DXC DYC RAW RAS DXG DYG
(PID.TID 0000.0001) tile:  70 ; Read from file tile003.mitgrid
(PID.TID 0000.0001)   => XC YC DXF DYF RA XG YG DXV DYU RAZ DXC DYC RAW RAS DXG DYG
(PID.TID 0000.0001) tile:  71 ; Read from file tile003.mitgrid
(PID.TID 0000.0001)   => XC YC DXF DYF RA XG YG DXV DYU RAZ DXC DYC RAW RAS DXG DYG
(PID.TID 0000.0001) tile:  72 ; Read from file tile003.mitgrid
(PID.TID 0000.0001)   => XC YC DXF DYF RA XG YG DXV DYU RAZ DXC DYC RAW RAS DXG DYG
(PID.TID 0000.0001) tile:  73 ; Read from file tile003.mitgrid
(PID.TID 0000.0001)   => XC YC DXF DYF RA XG YG DXV DYU RAZ DXC DYC RAW RAS DXG DYG
(PID.TID 0000.0001) tile:  74 ; Read from file tile003.mitgrid
(PID.TID 0000.0001)   => XC YC DXF DYF RA XG YG DXV DYU RAZ DXC DYC RAW RAS DXG DYG
(PID.TID 0000.0001) tile:  75 ; Read from file tile003.mitgrid
(PID.TID 0000.0001)   => XC YC DXF DYF RA XG YG DXV DYU RAZ DXC DYC RAW RAS DXG DYG
(PID.TID 0000.0001) tile:  76 ; Read from file tile003.mitgrid
(PID.TID 0000.0001)   => XC YC DXF DYF RA XG YG DXV DYU RAZ DXC DYC RAW RAS DXG DYG
(PID.TID 0000.0001) tile:  77 ; Read from file tile003.mitgrid
(PID.TID 0000.0001)   => XC YC DXF DYF RA XG YG DXV DYU RAZ DXC DYC RAW RAS DXG DYG
(PID.TID 0000.0001) tile:  78 ; Read from file tile003.mitgrid
(PID.TID 0000.0001)   => XC YC DXF DYF RA XG YG DXV DYU RAZ DXC DYC RAW RAS DXG DYG
(PID.TID 0000.0001) tile:  79 ; Read from file tile003.mitgrid
(PID.TID 0000.0001)   => XC YC DXF DYF RA XG YG DXV DYU RAZ DXC DYC RAW RAS DXG DYG
(PID.TID 0000.0001) tile:  80 ; Read from file tile003.mitgrid
(PID.TID 0000.0001)   => XC YC DXF DYF RA XG YG DXV DYU RAZ DXC DYC RAW RAS DXG DYG
(PID.TID 0000.0001) tile:  81 ; Read from file tile003.mitgrid
(PID.TID 0000.0001)   => XC YC DXF DYF RA XG YG DXV DYU RAZ DXC DYC RAW RAS DXG DYG
(PID.TID 0000.0001) tile:  82 ; Read from file tile003.mitgrid
(PID.TID 0000.0001)   => XC YC DXF DYF RA XG YG DXV DYU RAZ DXC DYC RAW RAS DXG DYG
(PID.TID 0000.0001) tile:  83 ; Read from file tile003.mitgrid
(PID.TID 0000.0001)   => XC YC DXF DYF RA XG YG DXV DYU RAZ DXC DYC RAW RAS DXG DYG
(PID.TID 0000.0001) tile:  84 ; Read from file tile003.mitgrid
(PID.TID 0000.0001)   => XC YC DXF DYF RA XG YG DXV DYU RAZ DXC DYC RAW RAS DXG DYG
(PID.TID 0000.0001) tile:  85 ; Read from file tile003.mitgrid
(PID.TID 0000.0001)   => XC YC DXF DYF RA XG YG DXV DYU RAZ DXC DYC RAW RAS DXG DYG
(PID.TID 0000.0001) tile:  86 ; Read from file tile003.mitgrid
(PID.TID 0000.0001)   => XC YC DXF DYF RA XG YG DXV DYU RAZ DXC DYC RAW RAS DXG DYG
(PID.TID 0000.0001) tile:  87 ; Read from file tile003.mitgrid
(PID.TID 0000.0001)   => XC YC DXF DYF RA XG YG DXV DYU RAZ DXC DYC RAW RAS DXG DYG
(PID.TID 0000.0001) tile:  88 ; Read from file tile003.mitgrid
(PID.TID 0000.0001)   => XC YC DXF DYF RA XG YG DXV DYU RAZ DXC DYC RAW RAS DXG DYG
(PID.TID 0000.0001) tile:  89 ; Read from file tile003.mitgrid
(PID.TID 0000.0001)   => XC YC DXF DYF RA XG YG DXV DYU RAZ DXC DYC RAW RAS DXG DYG
(PID.TID 0000.0001) tile:  90 ; Read from file tile003.mitgrid
(PID.TID 0000.0001)   => XC YC DXF DYF RA XG YG DXV DYU RAZ DXC DYC RAW RAS DXG DYG
(PID.TID 0000.0001) tile:  91 ; Read from file tile003.mitgrid
(PID.TID 0000.0001)   => XC YC DXF DYF RA XG YG DXV DYU RAZ DXC DYC RAW RAS DXG DYG
(PID.TID 0000.0001) tile:  92 ; Read from file tile003.mitgrid
(PID.TID 0000.0001)   => XC YC DXF DYF RA XG YG DXV DYU RAZ DXC DYC RAW RAS DXG DYG
(PID.TID 0000.0001) tile:  93 ; Read from file tile003.mitgrid
(PID.TID 0000.0001)   => XC YC DXF DYF RA XG YG DXV DYU RAZ DXC DYC RAW RAS DXG DYG
(PID.TID 0000.0001) tile:  94 ; Read from file tile003.mitgrid
(PID.TID 0000.0001)   => XC YC DXF DYF RA XG YG DXV DYU RAZ DXC DYC RAW RAS DXG DYG
(PID.TID 0000.0001) tile:  95 ; Read from file tile003.mitgrid
(PID.TID 0000.0001)   => XC YC DXF DYF RA XG YG DXV DYU RAZ DXC DYC RAW RAS DXG DYG
(PID.TID 0000.0001) tile:  96 ; Read from file tile003.mitgrid
(PID.TID 0000.0001)   => XC YC DXF DYF RA XG YG DXV DYU RAZ DXC DYC RAW RAS DXG DYG
(PID.TID 0000.0001) tile:  97 ; Read from file tile004.mitgrid
(PID.TID 0000.0001)   => XC YC DXF DYF RA XG YG DXV DYU RAZ DXC DYC RAW RAS DXG DYG
(PID.TID 0000.0001) tile:  98 ; Read from file tile004.mitgrid
(PID.TID 0000.0001)   => XC YC DXF DYF RA XG YG DXV DYU RAZ DXC DYC RAW RAS DXG DYG
(PID.TID 0000.0001) tile:  99 ; Read from file tile004.mitgrid
(PID.TID 0000.0001)   => XC YC DXF DYF RA XG YG DXV DYU RAZ DXC DYC RAW RAS DXG DYG
(PID.TID 0000.0001) tile: 100 ; Read from file tile004.mitgrid
(PID.TID 0000.0001)   => XC YC DXF DYF RA XG YG DXV DYU RAZ DXC DYC RAW RAS DXG DYG
(PID.TID 0000.0001) tile: 101 ; Read from file tile004.mitgrid
(PID.TID 0000.0001)   => XC YC DXF DYF RA XG YG DXV DYU RAZ DXC DYC RAW RAS DXG DYG
(PID.TID 0000.0001) tile: 102 ; Read from file tile004.mitgrid
(PID.TID 0000.0001)   => XC YC DXF DYF RA XG YG DXV DYU RAZ DXC DYC RAW RAS DXG DYG
(PID.TID 0000.0001) tile: 103 ; Read from file tile004.mitgrid
(PID.TID 0000.0001)   => XC YC DXF DYF RA XG YG DXV DYU RAZ DXC DYC RAW RAS DXG DYG
(PID.TID 0000.0001) tile: 104 ; Read from file tile004.mitgrid
(PID.TID 0000.0001)   => XC YC DXF DYF RA XG YG DXV DYU RAZ DXC DYC RAW RAS DXG DYG
(PID.TID 0000.0001) tile: 105 ; Read from file tile004.mitgrid
(PID.TID 0000.0001)   => XC YC DXF DYF RA XG YG DXV DYU RAZ DXC DYC RAW RAS DXG DYG
(PID.TID 0000.0001) tile: 106 ; Read from file tile004.mitgrid
(PID.TID 0000.0001)   => XC YC DXF DYF RA XG YG DXV DYU RAZ DXC DYC RAW RAS DXG DYG
(PID.TID 0000.0001) tile: 107 ; Read from file tile004.mitgrid
(PID.TID 0000.0001)   => XC YC DXF DYF RA XG YG DXV DYU RAZ DXC DYC RAW RAS DXG DYG
(PID.TID 0000.0001) tile: 108 ; Read from file tile004.mitgrid
(PID.TID 0000.0001)   => XC YC DXF DYF RA XG YG DXV DYU RAZ DXC DYC RAW RAS DXG DYG
(PID.TID 0000.0001) tile: 109 ; Read from file tile004.mitgrid
(PID.TID 0000.0001)   => XC YC DXF DYF RA XG YG DXV DYU RAZ DXC DYC RAW RAS DXG DYG
(PID.TID 0000.0001) tile: 110 ; Read from file tile004.mitgrid
(PID.TID 0000.0001)   => XC YC DXF DYF RA XG YG DXV DYU RAZ DXC DYC RAW RAS DXG DYG
(PID.TID 0000.0001) tile: 111 ; Read from file tile004.mitgrid
(PID.TID 0000.0001)   => XC YC DXF DYF RA XG YG DXV DYU RAZ DXC DYC RAW RAS DXG DYG
(PID.TID 0000.0001) tile: 112 ; Read from file tile004.mitgrid
(PID.TID 0000.0001)   => XC YC DXF DYF RA XG YG DXV DYU RAZ DXC DYC RAW RAS DXG DYG
(PID.TID 0000.0001) tile: 113 ; Read from file tile004.mitgrid
(PID.TID 0000.0001)   => XC YC DXF DYF RA XG YG DXV DYU RAZ DXC DYC RAW RAS DXG DYG
(PID.TID 0000.0001) tile: 114 ; Read from file tile004.mitgrid
(PID.TID 0000.0001)   => XC YC DXF DYF RA XG YG DXV DYU RAZ DXC DYC RAW RAS DXG DYG
(PID.TID 0000.0001) tile: 115 ; Read from file tile004.mitgrid
(PID.TID 0000.0001)   => XC YC DXF DYF RA XG YG DXV DYU RAZ DXC DYC RAW RAS DXG DYG
(PID.TID 0000.0001) tile: 116 ; Read from file tile004.mitgrid
(PID.TID 0000.0001)   => XC YC DXF DYF RA XG YG DXV DYU RAZ DXC DYC RAW RAS DXG DYG
(PID.TID 0000.0001) tile: 117 ; Read from file tile004.mitgrid
(PID.TID 0000.0001)   => XC YC DXF DYF RA XG YG DXV DYU RAZ DXC DYC RAW RAS DXG DYG
(PID.TID 0000.0001) tile: 118 ; Read from file tile004.mitgrid
(PID.TID 0000.0001)   => XC YC DXF DYF RA XG YG DXV DYU RAZ DXC DYC RAW RAS DXG DYG
(PID.TID 0000.0001) tile: 119 ; Read from file tile004.mitgrid
(PID.TID 0000.0001)   => XC YC DXF DYF RA XG YG DXV DYU RAZ DXC DYC RAW RAS DXG DYG
(PID.TID 0000.0001) tile: 120 ; Read from file tile004.mitgrid
(PID.TID 0000.0001)   => XC YC DXF DYF RA XG YG DXV DYU RAZ DXC DYC RAW RAS DXG DYG
(PID.TID 0000.0001) tile: 121 ; Read from file tile004.mitgrid
(PID.TID 0000.0001)   => XC YC DXF DYF RA XG YG DXV DYU RAZ DXC DYC RAW RAS DXG DYG
(PID.TID 0000.0001) tile: 122 ; Read from file tile004.mitgrid
(PID.TID 0000.0001)   => XC YC DXF DYF RA XG YG DXV DYU RAZ DXC DYC RAW RAS DXG DYG
(PID.TID 0000.0001) tile: 123 ; Read from file tile004.mitgrid
(PID.TID 0000.0001)   => XC YC DXF DYF RA XG YG DXV DYU RAZ DXC DYC RAW RAS DXG DYG
(PID.TID 0000.0001) tile: 124 ; Read from file tile004.mitgrid
(PID.TID 0000.0001)   => XC YC DXF DYF RA XG YG DXV DYU RAZ DXC DYC RAW RAS DXG DYG
(PID.TID 0000.0001) tile: 125 ; Read from file tile004.mitgrid
(PID.TID 0000.0001)   => XC YC DXF DYF RA XG YG DXV DYU RAZ DXC DYC RAW RAS DXG DYG
(PID.TID 0000.0001) tile: 126 ; Read from file tile004.mitgrid
(PID.TID 0000.0001)   => XC YC DXF DYF RA XG YG DXV DYU RAZ DXC DYC RAW RAS DXG DYG
(PID.TID 0000.0001) tile: 127 ; Read from file tile004.mitgrid
(PID.TID 0000.0001)   => XC YC DXF DYF RA XG YG DXV DYU RAZ DXC DYC RAW RAS DXG DYG
(PID.TID 0000.0001) tile: 128 ; Read from file tile004.mitgrid
(PID.TID 0000.0001)   => XC YC DXF DYF RA XG YG DXV DYU RAZ DXC DYC RAW RAS DXG DYG
(PID.TID 0000.0001) tile: 129 ; Read from file tile005.mitgrid
(PID.TID 0000.0001)   => XC YC DXF DYF RA XG YG DXV DYU RAZ DXC DYC RAW RAS DXG DYG
(PID.TID 0000.0001) tile: 130 ; Read from file tile005.mitgrid
(PID.TID 0000.0001)   => XC YC DXF DYF RA XG YG DXV DYU RAZ DXC DYC RAW RAS DXG DYG
(PID.TID 0000.0001) tile: 131 ; Read from file tile005.mitgrid
(PID.TID 0000.0001)   => XC YC DXF DYF RA XG YG DXV DYU RAZ DXC DYC RAW RAS DXG DYG
(PID.TID 0000.0001) tile: 132 ; Read from file tile005.mitgrid
(PID.TID 0000.0001)   => XC YC DXF DYF RA XG YG DXV DYU RAZ DXC DYC RAW RAS DXG DYG
(PID.TID 0000.0001) tile: 133 ; Read from file tile005.mitgrid
(PID.TID 0000.0001)   => XC YC DXF DYF RA XG YG DXV DYU RAZ DXC DYC RAW RAS DXG DYG
(PID.TID 0000.0001) tile: 134 ; Read from file tile005.mitgrid
(PID.TID 0000.0001)   => XC YC DXF DYF RA XG YG DXV DYU RAZ DXC DYC RAW RAS DXG DYG
(PID.TID 0000.0001) tile: 135 ; Read from file tile005.mitgrid
(PID.TID 0000.0001)   => XC YC DXF DYF RA XG YG DXV DYU RAZ DXC DYC RAW RAS DXG DYG
(PID.TID 0000.0001) tile: 136 ; Read from file tile005.mitgrid
(PID.TID 0000.0001)   => XC YC DXF DYF RA XG YG DXV DYU RAZ DXC DYC RAW RAS DXG DYG
(PID.TID 0000.0001) tile: 137 ; Read from file tile005.mitgrid
(PID.TID 0000.0001)   => XC YC DXF DYF RA XG YG DXV DYU RAZ DXC DYC RAW RAS DXG DYG
(PID.TID 0000.0001) tile: 138 ; Read from file tile005.mitgrid
(PID.TID 0000.0001)   => XC YC DXF DYF RA XG YG DXV DYU RAZ DXC DYC RAW RAS DXG DYG
(PID.TID 0000.0001) tile: 139 ; Read from file tile005.mitgrid
(PID.TID 0000.0001)   => XC YC DXF DYF RA XG YG DXV DYU RAZ DXC DYC RAW RAS DXG DYG
(PID.TID 0000.0001) tile: 140 ; Read from file tile005.mitgrid
(PID.TID 0000.0001)   => XC YC DXF DYF RA XG YG DXV DYU RAZ DXC DYC RAW RAS DXG DYG
(PID.TID 0000.0001) tile: 141 ; Read from file tile005.mitgrid
(PID.TID 0000.0001)   => XC YC DXF DYF RA XG YG DXV DYU RAZ DXC DYC RAW RAS DXG DYG
(PID.TID 0000.0001) tile: 142 ; Read from file tile005.mitgrid
(PID.TID 0000.0001)   => XC YC DXF DYF RA XG YG DXV DYU RAZ DXC DYC RAW RAS DXG DYG
(PID.TID 0000.0001) tile: 143 ; Read from file tile005.mitgrid
(PID.TID 0000.0001)   => XC YC DXF DYF RA XG YG DXV DYU RAZ DXC DYC RAW RAS DXG DYG
(PID.TID 0000.0001) tile: 144 ; Read from file tile005.mitgrid
(PID.TID 0000.0001)   => XC YC DXF DYF RA XG YG DXV DYU RAZ DXC DYC RAW RAS DXG DYG
(PID.TID 0000.0001) tile: 145 ; Read from file tile005.mitgrid
(PID.TID 0000.0001)   => XC YC DXF DYF RA XG YG DXV DYU RAZ DXC DYC RAW RAS DXG DYG
(PID.TID 0000.0001) tile: 146 ; Read from file tile005.mitgrid
(PID.TID 0000.0001)   => XC YC DXF DYF RA XG YG DXV DYU RAZ DXC DYC RAW RAS DXG DYG
(PID.TID 0000.0001) tile: 147 ; Read from file tile005.mitgrid
(PID.TID 0000.0001)   => XC YC DXF DYF RA XG YG DXV DYU RAZ DXC DYC RAW RAS DXG DYG
(PID.TID 0000.0001) tile: 148 ; Read from file tile005.mitgrid
(PID.TID 0000.0001)   => XC YC DXF DYF RA XG YG DXV DYU RAZ DXC DYC RAW RAS DXG DYG
(PID.TID 0000.0001) tile: 149 ; Read from file tile005.mitgrid
(PID.TID 0000.0001)   => XC YC DXF DYF RA XG YG DXV DYU RAZ DXC DYC RAW RAS DXG DYG
(PID.TID 0000.0001) tile: 150 ; Read from file tile005.mitgrid
(PID.TID 0000.0001)   => XC YC DXF DYF RA XG YG DXV DYU RAZ DXC DYC RAW RAS DXG DYG
(PID.TID 0000.0001) tile: 151 ; Read from file tile005.mitgrid
(PID.TID 0000.0001)   => XC YC DXF DYF RA XG YG DXV DYU RAZ DXC DYC RAW RAS DXG DYG
(PID.TID 0000.0001) tile: 152 ; Read from file tile005.mitgrid
(PID.TID 0000.0001)   => XC YC DXF DYF RA XG YG DXV DYU RAZ DXC DYC RAW RAS DXG DYG
(PID.TID 0000.0001) tile: 153 ; Read from file tile005.mitgrid
(PID.TID 0000.0001)   => XC YC DXF DYF RA XG YG DXV DYU RAZ DXC DYC RAW RAS DXG DYG
(PID.TID 0000.0001) tile: 154 ; Read from file tile005.mitgrid
(PID.TID 0000.0001)   => XC YC DXF DYF RA XG YG DXV DYU RAZ DXC DYC RAW RAS DXG DYG
(PID.TID 0000.0001) tile: 155 ; Read from file tile005.mitgrid
(PID.TID 0000.0001)   => XC YC DXF DYF RA XG YG DXV DYU RAZ DXC DYC RAW RAS DXG DYG
(PID.TID 0000.0001) tile: 156 ; Read from file tile005.mitgrid
(PID.TID 0000.0001)   => XC YC DXF DYF RA XG YG DXV DYU RAZ DXC DYC RAW RAS DXG DYG
(PID.TID 0000.0001) tile: 157 ; Read from file tile005.mitgrid
(PID.TID 0000.0001)   => XC YC DXF DYF RA XG YG DXV DYU RAZ DXC DYC RAW RAS DXG DYG
(PID.TID 0000.0001) tile: 158 ; Read from file tile005.mitgrid
(PID.TID 0000.0001)   => XC YC DXF DYF RA XG YG DXV DYU RAZ DXC DYC RAW RAS DXG DYG
(PID.TID 0000.0001) tile: 159 ; Read from file tile005.mitgrid
(PID.TID 0000.0001)   => XC YC DXF DYF RA XG YG DXV DYU RAZ DXC DYC RAW RAS DXG DYG
(PID.TID 0000.0001) tile: 160 ; Read from file tile005.mitgrid
(PID.TID 0000.0001)   => XC YC DXF DYF RA XG YG DXV DYU RAZ DXC DYC RAW RAS DXG DYG
(PID.TID 0000.0001) tile: 161 ; Read from file tile006.mitgrid
(PID.TID 0000.0001)   => XC YC DXF DYF RA XG YG DXV DYU RAZ DXC DYC RAW RAS DXG DYG
(PID.TID 0000.0001) tile: 162 ; Read from file tile006.mitgrid
(PID.TID 0000.0001)   => XC YC DXF DYF RA XG YG DXV DYU RAZ DXC DYC RAW RAS DXG DYG
(PID.TID 0000.0001) tile: 163 ; Read from file tile006.mitgrid
(PID.TID 0000.0001)   => XC YC DXF DYF RA XG YG DXV DYU RAZ DXC DYC RAW RAS DXG DYG
(PID.TID 0000.0001) tile: 164 ; Read from file tile006.mitgrid
(PID.TID 0000.0001)   => XC YC DXF DYF RA XG YG DXV DYU RAZ DXC DYC RAW RAS DXG DYG
(PID.TID 0000.0001) tile: 165 ; Read from file tile006.mitgrid
(PID.TID 0000.0001)   => XC YC DXF DYF RA XG YG DXV DYU RAZ DXC DYC RAW RAS DXG DYG
(PID.TID 0000.0001) tile: 166 ; Read from file tile006.mitgrid
(PID.TID 0000.0001)   => XC YC DXF DYF RA XG YG DXV DYU RAZ DXC DYC RAW RAS DXG DYG
(PID.TID 0000.0001) tile: 167 ; Read from file tile006.mitgrid
(PID.TID 0000.0001)   => XC YC DXF DYF RA XG YG DXV DYU RAZ DXC DYC RAW RAS DXG DYG
(PID.TID 0000.0001) tile: 168 ; Read from file tile006.mitgrid
(PID.TID 0000.0001)   => XC YC DXF DYF RA XG YG DXV DYU RAZ DXC DYC RAW RAS DXG DYG
(PID.TID 0000.0001) tile: 169 ; Read from file tile006.mitgrid
(PID.TID 0000.0001)   => XC YC DXF DYF RA XG YG DXV DYU RAZ DXC DYC RAW RAS DXG DYG
(PID.TID 0000.0001) tile: 170 ; Read from file tile006.mitgrid
(PID.TID 0000.0001)   => XC YC DXF DYF RA XG YG DXV DYU RAZ DXC DYC RAW RAS DXG DYG
(PID.TID 0000.0001) tile: 171 ; Read from file tile006.mitgrid
(PID.TID 0000.0001)   => XC YC DXF DYF RA XG YG DXV DYU RAZ DXC DYC RAW RAS DXG DYG
(PID.TID 0000.0001) tile: 172 ; Read from file tile006.mitgrid
(PID.TID 0000.0001)   => XC YC DXF DYF RA XG YG DXV DYU RAZ DXC DYC RAW RAS DXG DYG
(PID.TID 0000.0001) tile: 173 ; Read from file tile006.mitgrid
(PID.TID 0000.0001)   => XC YC DXF DYF RA XG YG DXV DYU RAZ DXC DYC RAW RAS DXG DYG
(PID.TID 0000.0001) tile: 174 ; Read from file tile006.mitgrid
(PID.TID 0000.0001)   => XC YC DXF DYF RA XG YG DXV DYU RAZ DXC DYC RAW RAS DXG DYG
(PID.TID 0000.0001) tile: 175 ; Read from file tile006.mitgrid
(PID.TID 0000.0001)   => XC YC DXF DYF RA XG YG DXV DYU RAZ DXC DYC RAW RAS DXG DYG
(PID.TID 0000.0001) tile: 176 ; Read from file tile006.mitgrid
(PID.TID 0000.0001)   => XC YC DXF DYF RA XG YG DXV DYU RAZ DXC DYC RAW RAS DXG DYG
(PID.TID 0000.0001) tile: 177 ; Read from file tile006.mitgrid
(PID.TID 0000.0001)   => XC YC DXF DYF RA XG YG DXV DYU RAZ DXC DYC RAW RAS DXG DYG
(PID.TID 0000.0001) tile: 178 ; Read from file tile006.mitgrid
(PID.TID 0000.0001)   => XC YC DXF DYF RA XG YG DXV DYU RAZ DXC DYC RAW RAS DXG DYG
(PID.TID 0000.0001) tile: 179 ; Read from file tile006.mitgrid
(PID.TID 0000.0001)   => XC YC DXF DYF RA XG YG DXV DYU RAZ DXC DYC RAW RAS DXG DYG
(PID.TID 0000.0001) tile: 180 ; Read from file tile006.mitgrid
(PID.TID 0000.0001)   => XC YC DXF DYF RA XG YG DXV DYU RAZ DXC DYC RAW RAS DXG DYG
(PID.TID 0000.0001) tile: 181 ; Read from file tile006.mitgrid
(PID.TID 0000.0001)   => XC YC DXF DYF RA XG YG DXV DYU RAZ DXC DYC RAW RAS DXG DYG
(PID.TID 0000.0001) tile: 182 ; Read from file tile006.mitgrid
(PID.TID 0000.0001)   => XC YC DXF DYF RA XG YG DXV DYU RAZ DXC DYC RAW RAS DXG DYG
(PID.TID 0000.0001) tile: 183 ; Read from file tile006.mitgrid
(PID.TID 0000.0001)   => XC YC DXF DYF RA XG YG DXV DYU RAZ DXC DYC RAW RAS DXG DYG
(PID.TID 0000.0001) tile: 184 ; Read from file tile006.mitgrid
(PID.TID 0000.0001)   => XC YC DXF DYF RA XG YG DXV DYU RAZ DXC DYC RAW RAS DXG DYG
(PID.TID 0000.0001) tile: 185 ; Read from file tile006.mitgrid
(PID.TID 0000.0001)   => XC YC DXF DYF RA XG YG DXV DYU RAZ DXC DYC RAW RAS DXG DYG
(PID.TID 0000.0001) tile: 186 ; Read from file tile006.mitgrid
(PID.TID 0000.0001)   => XC YC DXF DYF RA XG YG DXV DYU RAZ DXC DYC RAW RAS DXG DYG
(PID.TID 0000.0001) tile: 187 ; Read from file tile006.mitgrid
(PID.TID 0000.0001)   => XC YC DXF DYF RA XG YG DXV DYU RAZ DXC DYC RAW RAS DXG DYG
(PID.TID 0000.0001) tile: 188 ; Read from file tile006.mitgrid
(PID.TID 0000.0001)   => XC YC DXF DYF RA XG YG DXV DYU RAZ DXC DYC RAW RAS DXG DYG
(PID.TID 0000.0001) tile: 189 ; Read from file tile006.mitgrid
(PID.TID 0000.0001)   => XC YC DXF DYF RA XG YG DXV DYU RAZ DXC DYC RAW RAS DXG DYG
(PID.TID 0000.0001) tile: 190 ; Read from file tile006.mitgrid
(PID.TID 0000.0001)   => XC YC DXF DYF RA XG YG DXV DYU RAZ DXC DYC RAW RAS DXG DYG
(PID.TID 0000.0001) tile: 191 ; Read from file tile006.mitgrid
(PID.TID 0000.0001)   => XC YC DXF DYF RA XG YG DXV DYU RAZ DXC DYC RAW RAS DXG DYG
(PID.TID 0000.0001) tile: 192 ; Read from file tile006.mitgrid
(PID.TID 0000.0001)   => XC YC DXF DYF RA XG YG DXV DYU RAZ DXC DYC RAW RAS DXG DYG
(PID.TID 0000.0001) %MON XC_max                       =   1.7854351589505E+02
(PID.TID 0000.0001) %MON XC_min                       =  -1.7854351589505E+02
(PID.TID 0000.0001) %MON XC_mean                      =  -1.1350295703316E-14
(PID.TID 0000.0001) %MON XC_sd                        =   1.0355545336287E+02
(PID.TID 0000.0001) %MON XG_max                       =   1.8000000000000E+02
(PID.TID 0000.0001) %MON XG_min                       =  -1.7708797161002E+02
(PID.TID 0000.0001) %MON XG_mean                      =   1.8796250616675E+00
(PID.TID 0000.0001) %MON XG_sd                        =   1.0410625309932E+02
(PID.TID 0000.0001) %MON DXC_max                      =   3.2375185836900E+05
(PID.TID 0000.0001) %MON DXC_min                      =   1.1142031410131E+05
(PID.TID 0000.0001) %MON DXC_mean                     =   2.8605689051214E+05
(PID.TID 0000.0001) %MON DXC_sd                       =   3.4042087138252E+04
(PID.TID 0000.0001) %MON DXF_max                      =   3.2369947500827E+05
(PID.TID 0000.0001) %MON DXF_min                      =   1.2020820513318E+05
(PID.TID 0000.0001) %MON DXF_mean                     =   2.8605437324820E+05
(PID.TID 0000.0001) %MON DXF_sd                       =   3.4050524252539E+04
(PID.TID 0000.0001) %MON DXG_max                      =   3.2375195872773E+05
(PID.TID 0000.0001) %MON DXG_min                      =   1.0098378008791E+05
(PID.TID 0000.0001) %MON DXG_mean                     =   2.8603818508931E+05
(PID.TID 0000.0001) %MON DXG_sd                       =   3.4140406908005E+04
(PID.TID 0000.0001) %MON DXV_max                      =   3.2380418162750E+05
(PID.TID 0000.0001) %MON DXV_min                      =   8.0152299824136E+04
(PID.TID 0000.0001) %MON DXV_mean                     =   2.8603970633619E+05
(PID.TID 0000.0001) %MON DXV_sd                       =   3.4145142117723E+04
(PID.TID 0000.0001) %MON YC_max                       =   8.7940663871962E+01
(PID.TID 0000.0001) %MON YC_min                       =  -8.7940663871962E+01
(PID.TID 0000.0001) %MON YC_mean                      =  -1.9660199394404E-17
(PID.TID 0000.0001) %MON YC_sd                        =   3.8676242969072E+01
(PID.TID 0000.0001) %MON YG_max                       =   9.0000000000000E+01
(PID.TID 0000.0001) %MON YG_min                       =  -9.0000000000000E+01
(PID.TID 0000.0001) %MON YG_mean                      =  -1.3145513046891E-15
(PID.TID 0000.0001) %MON YG_sd                        =   3.9086186579984E+01
(PID.TID 0000.0001) %MON DYC_max                      =   3.2375185836900E+05
(PID.TID 0000.0001) %MON DYC_min                      =   1.1142031410131E+05
(PID.TID 0000.0001) %MON DYC_mean                     =   2.8605689051214E+05
(PID.TID 0000.0001) %MON DYC_sd                       =   3.4042087138252E+04
(PID.TID 0000.0001) %MON DYF_max                      =   3.2369947500827E+05
(PID.TID 0000.0001) %MON DYF_min                      =   1.2020820513318E+05
(PID.TID 0000.0001) %MON DYF_mean                     =   2.8605437324820E+05
(PID.TID 0000.0001) %MON DYF_sd                       =   3.4050524252539E+04
(PID.TID 0000.0001) %MON DYG_max                      =   3.2375195872773E+05
(PID.TID 0000.0001) %MON DYG_min                      =   1.0098378008791E+05
(PID.TID 0000.0001) %MON DYG_mean                     =   2.8603818508931E+05
(PID.TID 0000.0001) %MON DYG_sd                       =   3.4140406908005E+04
(PID.TID 0000.0001) %MON DYU_max                      =   3.2380418162750E+05
(PID.TID 0000.0001) %MON DYU_min                      =   8.0152299824136E+04
(PID.TID 0000.0001) %MON DYU_mean                     =   2.8603970633619E+05
(PID.TID 0000.0001) %MON DYU_sd                       =   3.4145142117723E+04
(PID.TID 0000.0001) %MON RA_max                       =   1.0479260248419E+11
(PID.TID 0000.0001) %MON RA_min                       =   1.4019007022556E+10
(PID.TID 0000.0001) %MON RA_mean                      =   8.2992246709265E+10
(PID.TID 0000.0001) %MON RA_sd                        =   1.7509089299457E+10
(PID.TID 0000.0001) %MON RAW_max                      =   1.0480965274559E+11
(PID.TID 0000.0001) %MON RAW_min                      =   1.2166903467143E+10
(PID.TID 0000.0001) %MON RAW_mean                     =   8.2992246709235E+10
(PID.TID 0000.0001) %MON RAW_sd                       =   1.7481917919656E+10
(PID.TID 0000.0001) %MON RAS_max                      =   1.0480965274559E+11
(PID.TID 0000.0001) %MON RAS_min                      =   1.2166903467143E+10
(PID.TID 0000.0001) %MON RAS_mean                     =   8.2992246709235E+10
(PID.TID 0000.0001) %MON RAS_sd                       =   1.7481917919656E+10
(PID.TID 0000.0001) %MON RAZ_max                      =   1.0484349334619E+11
(PID.TID 0000.0001) %MON RAZ_min                      =   8.8317900612505E+09
(PID.TID 0000.0001) %MON RAZ_mean                     =   8.2992246709235E+10
(PID.TID 0000.0001) %MON RAZ_sd                       =   1.7482297311044E+10
(PID.TID 0000.0001)  MDSREADFIELD: opening global file: bathy_Hmin50.bin
(PID.TID 0000.0001) // =======================================================
(PID.TID 0000.0001) // Field Model R_low (ini_masks_etc) tile      1 at iteration          1
(PID.TID 0000.0001) // CMIN =         -5.200000000000000E+03
(PID.TID 0000.0001) // CMAX =         -5.000000000000000E+01
(PID.TID 0000.0001) // CINT =          0.000000000000000E+00
(PID.TID 0000.0001) // SYMBOLS (CMIN->CMAX): -abcdefghijklmnopqrstuvwxyz+
(PID.TID 0000.0001) //                  0.0: .
(PID.TID 0000.0001) // RANGE I (Lo:Hi:Step):(  -1:  10:   1)
(PID.TID 0000.0001) // RANGE J (Lo:Hi:Step):(   6:  -1:  -1)
(PID.TID 0000.0001) // RANGE K (Lo:Hi:Step):(   1:   1:   1)
(PID.TID 0000.0001) // =======================================================
(PID.TID 0000.0001) Model domain too big to print to terminal - skipping I/O
(PID.TID 0000.0001) // =======================================================
(PID.TID 0000.0001) // Field Model R_low (ini_masks_etc) tile      2 at iteration          1
(PID.TID 0000.0001) // CMIN =         -5.200000000000000E+03
(PID.TID 0000.0001) // CMAX =         -3.001000000000000E+03
(PID.TID 0000.0001) // CINT =          0.000000000000000E+00
(PID.TID 0000.0001) // SYMBOLS (CMIN->CMAX): -abcdefghijklmnopqrstuvwxyz+
(PID.TID 0000.0001) //                  0.0: .
(PID.TID 0000.0001) // RANGE I (Lo:Hi:Step):(   7:  18:   1)
(PID.TID 0000.0001) // RANGE J (Lo:Hi:Step):(   6:  -1:  -1)
(PID.TID 0000.0001) // RANGE K (Lo:Hi:Step):(   1:   1:   1)
(PID.TID 0000.0001) // =======================================================
(PID.TID 0000.0001) Model domain too big to print to terminal - skipping I/O
(PID.TID 0000.0001) // =======================================================
(PID.TID 0000.0001) // Field Model R_low (ini_masks_etc) tile      3 at iteration          1
(PID.TID 0000.0001) // CMIN =         -5.200000000000000E+03
(PID.TID 0000.0001) // CMAX =         -1.510000000000000E+02
(PID.TID 0000.0001) // CINT =          0.000000000000000E+00
(PID.TID 0000.0001) // SYMBOLS (CMIN->CMAX): -abcdefghijklmnopqrstuvwxyz+
(PID.TID 0000.0001) //                  0.0: .
(PID.TID 0000.0001) // RANGE I (Lo:Hi:Step):(  15:  26:   1)
(PID.TID 0000.0001) // RANGE J (Lo:Hi:Step):(   6:  -1:  -1)
(PID.TID 0000.0001) // RANGE K (Lo:Hi:Step):(   1:   1:   1)
(PID.TID 0000.0001) // =======================================================
(PID.TID 0000.0001) Model domain too big to print to terminal - skipping I/O
(PID.TID 0000.0001) // =======================================================
(PID.TID 0000.0001) // Field Model R_low (ini_masks_etc) tile      4 at iteration          1
(PID.TID 0000.0001) // CMIN =         -5.200000000000000E+03
(PID.TID 0000.0001) // CMAX =         -9.300000000000000E+02
(PID.TID 0000.0001) // CINT =          0.000000000000000E+00
(PID.TID 0000.0001) // SYMBOLS (CMIN->CMAX): -abcdefghijklmnopqrstuvwxyz+
(PID.TID 0000.0001) //                  0.0: .
(PID.TID 0000.0001) // RANGE I (Lo:Hi:Step):(  23:  34:   1)
(PID.TID 0000.0001) // RANGE J (Lo:Hi:Step):(   6:  -1:  -1)
(PID.TID 0000.0001) // RANGE K (Lo:Hi:Step):(   1:   1:   1)
(PID.TID 0000.0001) // =======================================================
(PID.TID 0000.0001) Model domain too big to print to terminal - skipping I/O
(PID.TID 0000.0001) // =======================================================
(PID.TID 0000.0001) // Field Model R_low (ini_masks_etc) tile      5 at iteration          1
(PID.TID 0000.0001) // CMIN =         -5.200000000000000E+03
(PID.TID 0000.0001) // CMAX =         -5.000000000000000E+01
(PID.TID 0000.0001) // CINT =          0.000000000000000E+00
(PID.TID 0000.0001) // SYMBOLS (CMIN->CMAX): -abcdefghijklmnopqrstuvwxyz+
(PID.TID 0000.0001) //                  0.0: .
(PID.TID 0000.0001) // RANGE I (Lo:Hi:Step):(  31:  42:   1)
(PID.TID 0000.0001) // RANGE J (Lo:Hi:Step):(   6:  -1:  -1)
(PID.TID 0000.0001) // RANGE K (Lo:Hi:Step):(   1:   1:   1)
(PID.TID 0000.0001) // =======================================================
(PID.TID 0000.0001) Model domain too big to print to terminal - skipping I/O
(PID.TID 0000.0001) // =======================================================
(PID.TID 0000.0001) // Field Model R_low (ini_masks_etc) tile      6 at iteration          1
(PID.TID 0000.0001) // CMIN =         -5.200000000000000E+03
(PID.TID 0000.0001) // CMAX =         -3.001000000000000E+03
(PID.TID 0000.0001) // CINT =          0.000000000000000E+00
(PID.TID 0000.0001) // SYMBOLS (CMIN->CMAX): -abcdefghijklmnopqrstuvwxyz+
(PID.TID 0000.0001) //                  0.0: .
(PID.TID 0000.0001) // RANGE I (Lo:Hi:Step):(  39:  50:   1)
(PID.TID 0000.0001) // RANGE J (Lo:Hi:Step):(   6:  -1:  -1)
(PID.TID 0000.0001) // RANGE K (Lo:Hi:Step):(   1:   1:   1)
(PID.TID 0000.0001) // =======================================================
(PID.TID 0000.0001) Model domain too big to print to terminal - skipping I/O
(PID.TID 0000.0001) // =======================================================
(PID.TID 0000.0001) // Field Model R_low (ini_masks_etc) tile      7 at iteration          1
(PID.TID 0000.0001) // CMIN =         -5.200000000000000E+03
(PID.TID 0000.0001) // CMAX =         -7.000000000000000E+01
(PID.TID 0000.0001) // CINT =          0.000000000000000E+00
(PID.TID 0000.0001) // SYMBOLS (CMIN->CMAX): -abcdefghijklmnopqrstuvwxyz+
(PID.TID 0000.0001) //                  0.0: .
(PID.TID 0000.0001) // RANGE I (Lo:Hi:Step):(  47:  58:   1)
(PID.TID 0000.0001) // RANGE J (Lo:Hi:Step):(   6:  -1:  -1)
(PID.TID 0000.0001) // RANGE K (Lo:Hi:Step):(   1:   1:   1)
(PID.TID 0000.0001) // =======================================================
(PID.TID 0000.0001) Model domain too big to print to terminal - skipping I/O
(PID.TID 0000.0001) // =======================================================
(PID.TID 0000.0001) // Field Model R_low (ini_masks_etc) tile      8 at iteration          1
(PID.TID 0000.0001) // CMIN =         -5.130000000000000E+03
(PID.TID 0000.0001) // CMAX =         -9.500000000000000E+01
(PID.TID 0000.0001) // CINT =          0.000000000000000E+00
(PID.TID 0000.0001) // SYMBOLS (CMIN->CMAX): -abcdefghijklmnopqrstuvwxyz+
(PID.TID 0000.0001) //                  0.0: .
(PID.TID 0000.0001) // RANGE I (Lo:Hi:Step):(  55:  66:   1)
(PID.TID 0000.0001) // RANGE J (Lo:Hi:Step):(   6:  -1:  -1)
(PID.TID 0000.0001) // RANGE K (Lo:Hi:Step):(   1:   1:   1)
(PID.TID 0000.0001) // =======================================================
(PID.TID 0000.0001) Model domain too big to print to terminal - skipping I/O
(PID.TID 0000.0001) // =======================================================
(PID.TID 0000.0001) // Field Model R_low (ini_masks_etc) tile      9 at iteration          1
(PID.TID 0000.0001) // CMIN =         -5.200000000000000E+03
(PID.TID 0000.0001) // CMAX =         -5.000000000000000E+01
(PID.TID 0000.0001) // CINT =          0.000000000000000E+00
(PID.TID 0000.0001) // SYMBOLS (CMIN->CMAX): -abcdefghijklmnopqrstuvwxyz+
(PID.TID 0000.0001) //                  0.0: .
(PID.TID 0000.0001) // RANGE I (Lo:Hi:Step):(  63:  74:   1)
(PID.TID 0000.0001) // RANGE J (Lo:Hi:Step):(   6:  -1:  -1)
(PID.TID 0000.0001) // RANGE K (Lo:Hi:Step):(   1:   1:   1)
(PID.TID 0000.0001) // =======================================================
(PID.TID 0000.0001) Model domain too big to print to terminal - skipping I/O
(PID.TID 0000.0001) // =======================================================
(PID.TID 0000.0001) // Field Model R_low (ini_masks_etc) tile     10 at iteration          1
(PID.TID 0000.0001) // CMIN =         -5.200000000000000E+03
(PID.TID 0000.0001) // CMAX =         -3.001000000000000E+03
(PID.TID 0000.0001) // CINT =          0.000000000000000E+00
(PID.TID 0000.0001) // SYMBOLS (CMIN->CMAX): -abcdefghijklmnopqrstuvwxyz+
(PID.TID 0000.0001) //                  0.0: .
(PID.TID 0000.0001) // RANGE I (Lo:Hi:Step):(  71:  82:   1)
(PID.TID 0000.0001) // RANGE J (Lo:Hi:Step):(   6:  -1:  -1)
(PID.TID 0000.0001) // RANGE K (Lo:Hi:Step):(   1:   1:   1)
(PID.TID 0000.0001) // =======================================================
(PID.TID 0000.0001) Model domain too big to print to terminal - skipping I/O
(PID.TID 0000.0001) // =======================================================
(PID.TID 0000.0001) // Field Model R_low (ini_masks_etc) tile     11 at iteration          1
(PID.TID 0000.0001) // CMIN =         -5.200000000000000E+03
(PID.TID 0000.0001) // CMAX =         -7.000000000000000E+01
(PID.TID 0000.0001) // CINT =          0.000000000000000E+00
(PID.TID 0000.0001) // SYMBOLS (CMIN->CMAX): -abcdefghijklmnopqrstuvwxyz+
(PID.TID 0000.0001) //                  0.0: .
(PID.TID 0000.0001) // RANGE I (Lo:Hi:Step):(  79:  90:   1)
(PID.TID 0000.0001) // RANGE J (Lo:Hi:Step):(   6:  -1:  -1)
(PID.TID 0000.0001) // RANGE K (Lo:Hi:Step):(   1:   1:   1)
(PID.TID 0000.0001) // =======================================================
(PID.TID 0000.0001) Model domain too big to print to terminal - skipping I/O
(PID.TID 0000.0001) // =======================================================
(PID.TID 0000.0001) // Field Model R_low (ini_masks_etc) tile     12 at iteration          1
(PID.TID 0000.0001) // CMIN =         -4.462000000000000E+03
(PID.TID 0000.0001) // CMAX =         -9.500000000000000E+01
(PID.TID 0000.0001) // CINT =          0.000000000000000E+00
(PID.TID 0000.0001) // SYMBOLS (CMIN->CMAX): -abcdefghijklmnopqrstuvwxyz+
(PID.TID 0000.0001) //                  0.0: .
(PID.TID 0000.0001) // RANGE I (Lo:Hi:Step):(  87:  98:   1)
(PID.TID 0000.0001) // RANGE J (Lo:Hi:Step):(   6:  -1:  -1)
(PID.TID 0000.0001) // RANGE K (Lo:Hi:Step):(   1:   1:   1)
(PID.TID 0000.0001) // =======================================================
(PID.TID 0000.0001) Model domain too big to print to terminal - skipping I/O
(PID.TID 0000.0001) // =======================================================
(PID.TID 0000.0001) // Field Model R_low (ini_masks_etc) tile     13 at iteration          1
(PID.TID 0000.0001) // CMIN =         -5.200000000000000E+03
(PID.TID 0000.0001) // CMAX =         -5.000000000000000E+01
(PID.TID 0000.0001) // CINT =          0.000000000000000E+00
(PID.TID 0000.0001) // SYMBOLS (CMIN->CMAX): -abcdefghijklmnopqrstuvwxyz+
(PID.TID 0000.0001) //                  0.0: .
(PID.TID 0000.0001) // RANGE I (Lo:Hi:Step):(  95: 106:   1)
(PID.TID 0000.0001) // RANGE J (Lo:Hi:Step):(   6:  -1:  -1)
(PID.TID 0000.0001) // RANGE K (Lo:Hi:Step):(   1:   1:   1)
(PID.TID 0000.0001) // =======================================================
(PID.TID 0000.0001) Model domain too big to print to terminal - skipping I/O
(PID.TID 0000.0001) // =======================================================
(PID.TID 0000.0001) // Field Model R_low (ini_masks_etc) tile     14 at iteration          1
(PID.TID 0000.0001) // CMIN =         -5.200000000000000E+03
(PID.TID 0000.0001) // CMAX =         -1.003000000000000E+03
(PID.TID 0000.0001) // CINT =          0.000000000000000E+00
(PID.TID 0000.0001) // SYMBOLS (CMIN->CMAX): -abcdefghijklmnopqrstuvwxyz+
(PID.TID 0000.0001) //                  0.0: .
(PID.TID 0000.0001) // RANGE I (Lo:Hi:Step):( 103: 114:   1)
(PID.TID 0000.0001) // RANGE J (Lo:Hi:Step):(   6:  -1:  -1)
(PID.TID 0000.0001) // RANGE K (Lo:Hi:Step):(   1:   1:   1)
(PID.TID 0000.0001) // =======================================================
(PID.TID 0000.0001) Model domain too big to print to terminal - skipping I/O
(PID.TID 0000.0001) // =======================================================
(PID.TID 0000.0001) // Field Model R_low (ini_masks_etc) tile     15 at iteration          1
(PID.TID 0000.0001) // CMIN =         -5.200000000000000E+03
(PID.TID 0000.0001) // CMAX =         -1.710000000000000E+02
(PID.TID 0000.0001) // CINT =          0.000000000000000E+00
(PID.TID 0000.0001) // SYMBOLS (CMIN->CMAX): -abcdefghijklmnopqrstuvwxyz+
(PID.TID 0000.0001) //                  0.0: .
(PID.TID 0000.0001) // RANGE I (Lo:Hi:Step):( 111: 122:   1)
(PID.TID 0000.0001) // RANGE J (Lo:Hi:Step):(   6:  -1:  -1)
(PID.TID 0000.0001) // RANGE K (Lo:Hi:Step):(   1:   1:   1)
(PID.TID 0000.0001) // =======================================================
(PID.TID 0000.0001) Model domain too big to print to terminal - skipping I/O
(PID.TID 0000.0001) // =======================================================
(PID.TID 0000.0001) // Field Model R_low (ini_masks_etc) tile     16 at iteration          1
(PID.TID 0000.0001) // CMIN =         -4.899000000000000E+03
(PID.TID 0000.0001) // CMAX =         -1.609000000000000E+03
(PID.TID 0000.0001) // CINT =          0.000000000000000E+00
(PID.TID 0000.0001) // SYMBOLS (CMIN->CMAX): -abcdefghijklmnopqrstuvwxyz+
(PID.TID 0000.0001) //                  0.0: .
(PID.TID 0000.0001) // RANGE I (Lo:Hi:Step):( 119: 130:   1)
(PID.TID 0000.0001) // RANGE J (Lo:Hi:Step):(   6:  -1:  -1)
(PID.TID 0000.0001) // RANGE K (Lo:Hi:Step):(   1:   1:   1)
(PID.TID 0000.0001) // =======================================================
(PID.TID 0000.0001) Model domain too big to print to terminal - skipping I/O
(PID.TID 0000.0001) // =======================================================
(PID.TID 0000.0001) // Field Model R_low (ini_masks_etc) tile     17 at iteration          1
(PID.TID 0000.0001) // CMIN =         -5.200000000000000E+03
(PID.TID 0000.0001) // CMAX =         -5.000000000000000E+01
(PID.TID 0000.0001) // CINT =          0.000000000000000E+00
(PID.TID 0000.0001) // SYMBOLS (CMIN->CMAX): -abcdefghijklmnopqrstuvwxyz+
(PID.TID 0000.0001) //                  0.0: .
(PID.TID 0000.0001) // RANGE I (Lo:Hi:Step):( 127: 138:   1)
(PID.TID 0000.0001) // RANGE J (Lo:Hi:Step):(   6:  -1:  -1)
(PID.TID 0000.0001) // RANGE K (Lo:Hi:Step):(   1:   1:   1)
(PID.TID 0000.0001) // =======================================================
(PID.TID 0000.0001) Model domain too big to print to terminal - skipping I/O
(PID.TID 0000.0001) // =======================================================
(PID.TID 0000.0001) // Field Model R_low (ini_masks_etc) tile     18 at iteration          1
(PID.TID 0000.0001) // CMIN =         -5.200000000000000E+03
(PID.TID 0000.0001) // CMAX =         -5.000000000000000E+01
(PID.TID 0000.0001) // CINT =          0.000000000000000E+00
(PID.TID 0000.0001) // SYMBOLS (CMIN->CMAX): -abcdefghijklmnopqrstuvwxyz+
(PID.TID 0000.0001) //                  0.0: .
(PID.TID 0000.0001) // RANGE I (Lo:Hi:Step):( 135: 146:   1)
(PID.TID 0000.0001) // RANGE J (Lo:Hi:Step):(   6:  -1:  -1)
(PID.TID 0000.0001) // RANGE K (Lo:Hi:Step):(   1:   1:   1)
(PID.TID 0000.0001) // =======================================================
(PID.TID 0000.0001) Model domain too big to print to terminal - skipping I/O
(PID.TID 0000.0001) // =======================================================
(PID.TID 0000.0001) // Field Model R_low (ini_masks_etc) tile     19 at iteration          1
(PID.TID 0000.0001) // CMIN =         -5.007000000000000E+03
(PID.TID 0000.0001) // CMAX =         -2.000000000000000E+02
(PID.TID 0000.0001) // CINT =          0.000000000000000E+00
(PID.TID 0000.0001) // SYMBOLS (CMIN->CMAX): -abcdefghijklmnopqrstuvwxyz+
(PID.TID 0000.0001) //                  0.0: .
(PID.TID 0000.0001) // RANGE I (Lo:Hi:Step):( 143: 154:   1)
(PID.TID 0000.0001) // RANGE J (Lo:Hi:Step):(   6:  -1:  -1)
(PID.TID 0000.0001) // RANGE K (Lo:Hi:Step):(   1:   1:   1)
(PID.TID 0000.0001) // =======================================================
(PID.TID 0000.0001) Model domain too big to print to terminal - skipping I/O
(PID.TID 0000.0001) // =======================================================
(PID.TID 0000.0001) // Field Model R_low (ini_masks_etc) tile     20 at iteration          1
(PID.TID 0000.0001) // CMIN =         -4.899000000000000E+03
(PID.TID 0000.0001) // CMAX =         -1.723333333333333E+02
(PID.TID 0000.0001) // CINT =          0.000000000000000E+00
(PID.TID 0000.0001) // SYMBOLS (CMIN->CMAX): -abcdefghijklmnopqrstuvwxyz+
(PID.TID 0000.0001) //                  0.0: .
(PID.TID 0000.0001) // RANGE I (Lo:Hi:Step):( 151: 162:   1)
(PID.TID 0000.0001) // RANGE J (Lo:Hi:Step):(   6:  -1:  -1)
(PID.TID 0000.0001) // RANGE K (Lo:Hi:Step):(   1:   1:   1)
(PID.TID 0000.0001) // =======================================================
(PID.TID 0000.0001) Model domain too big to print to terminal - skipping I/O
(PID.TID 0000.0001) // =======================================================
(PID.TID 0000.0001) // Field Model R_low (ini_masks_etc) tile     21 at iteration          1
(PID.TID 0000.0001) // CMIN =         -5.200000000000000E+03
(PID.TID 0000.0001) // CMAX =         -3.163000000000000E+03
(PID.TID 0000.0001) // CINT =          0.000000000000000E+00
(PID.TID 0000.0001) // SYMBOLS (CMIN->CMAX): -abcdefghijklmnopqrstuvwxyz+
(PID.TID 0000.0001) //                  0.0: .
(PID.TID 0000.0001) // RANGE I (Lo:Hi:Step):( 159: 170:   1)
(PID.TID 0000.0001) // RANGE J (Lo:Hi:Step):(   6:  -1:  -1)
(PID.TID 0000.0001) // RANGE K (Lo:Hi:Step):(   1:   1:   1)
(PID.TID 0000.0001) // =======================================================
(PID.TID 0000.0001) Model domain too big to print to terminal - skipping I/O
(PID.TID 0000.0001) // =======================================================
(PID.TID 0000.0001) // Field Model R_low (ini_masks_etc) tile     22 at iteration          1
(PID.TID 0000.0001) // CMIN =         -5.200000000000000E+03
(PID.TID 0000.0001) // CMAX =         -5.000000000000000E+01
(PID.TID 0000.0001) // CINT =          0.000000000000000E+00
(PID.TID 0000.0001) // SYMBOLS (CMIN->CMAX): -abcdefghijklmnopqrstuvwxyz+
(PID.TID 0000.0001) //                  0.0: .
(PID.TID 0000.0001) // RANGE I (Lo:Hi:Step):( 167: 178:   1)
(PID.TID 0000.0001) // RANGE J (Lo:Hi:Step):(   6:  -1:  -1)
(PID.TID 0000.0001) // RANGE K (Lo:Hi:Step):(   1:   1:   1)
(PID.TID 0000.0001) // =======================================================
(PID.TID 0000.0001) Model domain too big to print to terminal - skipping I/O
(PID.TID 0000.0001) // =======================================================
(PID.TID 0000.0001) // Field Model R_low (ini_masks_etc) tile     23 at iteration          1
(PID.TID 0000.0001) // CMIN =          1.000000000000000E+32
(PID.TID 0000.0001) // CMAX =         -1.000000000000000E+32
(PID.TID 0000.0001) // CINT =          0.000000000000000E+00
(PID.TID 0000.0001) // SYMBOLS (CMIN->CMAX): -abcdefghijklmnopqrstuvwxyz+
(PID.TID 0000.0001) //                  0.0: .
(PID.TID 0000.0001) // RANGE I (Lo:Hi:Step):( 175: 186:   1)
(PID.TID 0000.0001) // RANGE J (Lo:Hi:Step):(   6:  -1:  -1)
(PID.TID 0000.0001) // RANGE K (Lo:Hi:Step):(   1:   1:   1)
(PID.TID 0000.0001) // =======================================================
(PID.TID 0000.0001) Model domain too big to print to terminal - skipping I/O
(PID.TID 0000.0001) // =======================================================
(PID.TID 0000.0001) // Field Model R_low (ini_masks_etc) tile     24 at iteration          1
(PID.TID 0000.0001) // CMIN =         -1.531000000000000E+03
(PID.TID 0000.0001) // CMAX =         -1.723333333333333E+02
(PID.TID 0000.0001) // CINT =          0.000000000000000E+00
(PID.TID 0000.0001) // SYMBOLS (CMIN->CMAX): -abcdefghijklmnopqrstuvwxyz+
(PID.TID 0000.0001) //                  0.0: .
(PID.TID 0000.0001) // RANGE I (Lo:Hi:Step):( 183: 194:   1)
(PID.TID 0000.0001) // RANGE J (Lo:Hi:Step):(   6:  -1:  -1)
(PID.TID 0000.0001) // RANGE K (Lo:Hi:Step):(   1:   1:   1)
(PID.TID 0000.0001) // =======================================================
(PID.TID 0000.0001) Model domain too big to print to terminal - skipping I/O
(PID.TID 0000.0001) // =======================================================
(PID.TID 0000.0001) // Field Model R_low (ini_masks_etc) tile     25 at iteration          1
(PID.TID 0000.0001) // CMIN =         -5.200000000000000E+03
(PID.TID 0000.0001) // CMAX =         -2.979000000000000E+03
(PID.TID 0000.0001) // CINT =          0.000000000000000E+00
(PID.TID 0000.0001) // SYMBOLS (CMIN->CMAX): -abcdefghijklmnopqrstuvwxyz+
(PID.TID 0000.0001) //                  0.0: .
(PID.TID 0000.0001) // RANGE I (Lo:Hi:Step):( 191: 202:   1)
(PID.TID 0000.0001) // RANGE J (Lo:Hi:Step):(   6:  -1:  -1)
(PID.TID 0000.0001) // RANGE K (Lo:Hi:Step):(   1:   1:   1)
(PID.TID 0000.0001) // =======================================================
(PID.TID 0000.0001) Model domain too big to print to terminal - skipping I/O
(PID.TID 0000.0001) // =======================================================
(PID.TID 0000.0001) // Field Model R_low (ini_masks_etc) tile     26 at iteration          1
(PID.TID 0000.0001) // CMIN =         -5.200000000000000E+03
(PID.TID 0000.0001) // CMAX =         -1.450000000000000E+02
(PID.TID 0000.0001) // CINT =          0.000000000000000E+00
(PID.TID 0000.0001) // SYMBOLS (CMIN->CMAX): -abcdefghijklmnopqrstuvwxyz+
(PID.TID 0000.0001) //                  0.0: .
(PID.TID 0000.0001) // RANGE I (Lo:Hi:Step):( 199: 210:   1)
(PID.TID 0000.0001) // RANGE J (Lo:Hi:Step):(   6:  -1:  -1)
(PID.TID 0000.0001) // RANGE K (Lo:Hi:Step):(   1:   1:   1)
(PID.TID 0000.0001) // =======================================================
(PID.TID 0000.0001) Model domain too big to print to terminal - skipping I/O
(PID.TID 0000.0001) // =======================================================
(PID.TID 0000.0001) // Field Model R_low (ini_masks_etc) tile     27 at iteration          1
(PID.TID 0000.0001) // CMIN =         -3.396000000000000E+03
(PID.TID 0000.0001) // CMAX =         -1.030000000000000E+02
(PID.TID 0000.0001) // CINT =          0.000000000000000E+00
(PID.TID 0000.0001) // SYMBOLS (CMIN->CMAX): -abcdefghijklmnopqrstuvwxyz+
(PID.TID 0000.0001) //                  0.0: .
(PID.TID 0000.0001) // RANGE I (Lo:Hi:Step):( 207: 218:   1)
(PID.TID 0000.0001) // RANGE J (Lo:Hi:Step):(   6:  -1:  -1)
(PID.TID 0000.0001) // RANGE K (Lo:Hi:Step):(   1:   1:   1)
(PID.TID 0000.0001) // =======================================================
(PID.TID 0000.0001) Model domain too big to print to terminal - skipping I/O
(PID.TID 0000.0001) // =======================================================
(PID.TID 0000.0001) // Field Model R_low (ini_masks_etc) tile     28 at iteration          1
(PID.TID 0000.0001) // CMIN =         -3.017000000000000E+03
(PID.TID 0000.0001) // CMAX =         -2.030000000000000E+02
(PID.TID 0000.0001) // CINT =          0.000000000000000E+00
(PID.TID 0000.0001) // SYMBOLS (CMIN->CMAX): -abcdefghijklmnopqrstuvwxyz+
(PID.TID 0000.0001) //                  0.0: .
(PID.TID 0000.0001) // RANGE I (Lo:Hi:Step):( 215: 226:   1)
(PID.TID 0000.0001) // RANGE J (Lo:Hi:Step):(   6:  -1:  -1)
(PID.TID 0000.0001) // RANGE K (Lo:Hi:Step):(   1:   1:   1)
(PID.TID 0000.0001) // =======================================================
(PID.TID 0000.0001) Model domain too big to print to terminal - skipping I/O
(PID.TID 0000.0001) // =======================================================
(PID.TID 0000.0001) // Field Model R_low (ini_masks_etc) tile     29 at iteration          1
(PID.TID 0000.0001) // CMIN =         -5.200000000000000E+03
(PID.TID 0000.0001) // CMAX =         -1.950000000000000E+03
(PID.TID 0000.0001) // CINT =          0.000000000000000E+00
(PID.TID 0000.0001) // SYMBOLS (CMIN->CMAX): -abcdefghijklmnopqrstuvwxyz+
(PID.TID 0000.0001) //                  0.0: .
(PID.TID 0000.0001) // RANGE I (Lo:Hi:Step):( 223: 234:   1)
(PID.TID 0000.0001) // RANGE J (Lo:Hi:Step):(   6:  -1:  -1)
(PID.TID 0000.0001) // RANGE K (Lo:Hi:Step):(   1:   1:   1)
(PID.TID 0000.0001) // =======================================================
(PID.TID 0000.0001) Model domain too big to print to terminal - skipping I/O
(PID.TID 0000.0001) // =======================================================
(PID.TID 0000.0001) // Field Model R_low (ini_masks_etc) tile     30 at iteration          1
(PID.TID 0000.0001) // CMIN =         -5.200000000000000E+03
(PID.TID 0000.0001) // CMAX =         -5.000000000000000E+01
(PID.TID 0000.0001) // CINT =          0.000000000000000E+00
(PID.TID 0000.0001) // SYMBOLS (CMIN->CMAX): -abcdefghijklmnopqrstuvwxyz+
(PID.TID 0000.0001) //                  0.0: .
(PID.TID 0000.0001) // RANGE I (Lo:Hi:Step):( 231: 242:   1)
(PID.TID 0000.0001) // RANGE J (Lo:Hi:Step):(   6:  -1:  -1)
(PID.TID 0000.0001) // RANGE K (Lo:Hi:Step):(   1:   1:   1)
(PID.TID 0000.0001) // =======================================================
(PID.TID 0000.0001) Model domain too big to print to terminal - skipping I/O
(PID.TID 0000.0001) // =======================================================
(PID.TID 0000.0001) // Field Model R_low (ini_masks_etc) tile     31 at iteration          1
(PID.TID 0000.0001) // CMIN =         -4.579000000000000E+03
(PID.TID 0000.0001) // CMAX =         -5.000000000000000E+01
(PID.TID 0000.0001) // CINT =          0.000000000000000E+00
(PID.TID 0000.0001) // SYMBOLS (CMIN->CMAX): -abcdefghijklmnopqrstuvwxyz+
(PID.TID 0000.0001) //                  0.0: .
(PID.TID 0000.0001) // RANGE I (Lo:Hi:Step):( 239: 250:   1)
(PID.TID 0000.0001) // RANGE J (Lo:Hi:Step):(   6:  -1:  -1)
(PID.TID 0000.0001) // RANGE K (Lo:Hi:Step):(   1:   1:   1)
(PID.TID 0000.0001) // =======================================================
(PID.TID 0000.0001) Model domain too big to print to terminal - skipping I/O
(PID.TID 0000.0001) // =======================================================
(PID.TID 0000.0001) // Field Model R_low (ini_masks_etc) tile     32 at iteration          1
(PID.TID 0000.0001) // CMIN =         -3.017000000000000E+03
(PID.TID 0000.0001) // CMAX =         -5.000000000000000E+01
(PID.TID 0000.0001) // CINT =          0.000000000000000E+00
(PID.TID 0000.0001) // SYMBOLS (CMIN->CMAX): -abcdefghijklmnopqrstuvwxyz+
(PID.TID 0000.0001) //                  0.0: .
(PID.TID 0000.0001) // RANGE I (Lo:Hi:Step):( 247: 258:   1)
(PID.TID 0000.0001) // RANGE J (Lo:Hi:Step):(   6:  -1:  -1)
(PID.TID 0000.0001) // RANGE K (Lo:Hi:Step):(   1:   1:   1)
(PID.TID 0000.0001) // =======================================================
(PID.TID 0000.0001) Model domain too big to print to terminal - skipping I/O
(PID.TID 0000.0001) // =======================================================
(PID.TID 0000.0001) // Field Model R_low (ini_masks_etc) tile     33 at iteration          1
(PID.TID 0000.0001) // CMIN =         -5.193000000000000E+03
(PID.TID 0000.0001) // CMAX =         -1.588000000000000E+03
(PID.TID 0000.0001) // CINT =          0.000000000000000E+00
(PID.TID 0000.0001) // SYMBOLS (CMIN->CMAX): -abcdefghijklmnopqrstuvwxyz+
(PID.TID 0000.0001) //                  0.0: .
(PID.TID 0000.0001) // RANGE I (Lo:Hi:Step):( 255: 266:   1)
(PID.TID 0000.0001) // RANGE J (Lo:Hi:Step):(   6:  -1:  -1)
(PID.TID 0000.0001) // RANGE K (Lo:Hi:Step):(   1:   1:   1)
(PID.TID 0000.0001) // =======================================================
(PID.TID 0000.0001) Model domain too big to print to terminal - skipping I/O
(PID.TID 0000.0001) // =======================================================
(PID.TID 0000.0001) // Field Model R_low (ini_masks_etc) tile     34 at iteration          1
(PID.TID 0000.0001) // CMIN =         -5.131000000000000E+03
(PID.TID 0000.0001) // CMAX =         -1.264029480026026E+03
(PID.TID 0000.0001) // CINT =          0.000000000000000E+00
(PID.TID 0000.0001) // SYMBOLS (CMIN->CMAX): -abcdefghijklmnopqrstuvwxyz+
(PID.TID 0000.0001) //                  0.0: .
(PID.TID 0000.0001) // RANGE I (Lo:Hi:Step):( 263: 274:   1)
(PID.TID 0000.0001) // RANGE J (Lo:Hi:Step):(   6:  -1:  -1)
(PID.TID 0000.0001) // RANGE K (Lo:Hi:Step):(   1:   1:   1)
(PID.TID 0000.0001) // =======================================================
(PID.TID 0000.0001) Model domain too big to print to terminal - skipping I/O
(PID.TID 0000.0001) // =======================================================
(PID.TID 0000.0001) // Field Model R_low (ini_masks_etc) tile     35 at iteration          1
(PID.TID 0000.0001) // CMIN =         -5.200000000000000E+03
(PID.TID 0000.0001) // CMAX =         -4.740000000000000E+02
(PID.TID 0000.0001) // CINT =          0.000000000000000E+00
(PID.TID 0000.0001) // SYMBOLS (CMIN->CMAX): -abcdefghijklmnopqrstuvwxyz+
(PID.TID 0000.0001) //                  0.0: .
(PID.TID 0000.0001) // RANGE I (Lo:Hi:Step):( 271: 282:   1)
(PID.TID 0000.0001) // RANGE J (Lo:Hi:Step):(   6:  -1:  -1)
(PID.TID 0000.0001) // RANGE K (Lo:Hi:Step):(   1:   1:   1)
(PID.TID 0000.0001) // =======================================================
(PID.TID 0000.0001) Model domain too big to print to terminal - skipping I/O
(PID.TID 0000.0001) // =======================================================
(PID.TID 0000.0001) // Field Model R_low (ini_masks_etc) tile     36 at iteration          1
(PID.TID 0000.0001) // CMIN =         -5.200000000000000E+03
(PID.TID 0000.0001) // CMAX =         -5.000000000000000E+01
(PID.TID 0000.0001) // CINT =          0.000000000000000E+00
(PID.TID 0000.0001) // SYMBOLS (CMIN->CMAX): -abcdefghijklmnopqrstuvwxyz+
(PID.TID 0000.0001) //                  0.0: .
(PID.TID 0000.0001) // RANGE I (Lo:Hi:Step):( 279: 290:   1)
(PID.TID 0000.0001) // RANGE J (Lo:Hi:Step):(   6:  -1:  -1)
(PID.TID 0000.0001) // RANGE K (Lo:Hi:Step):(   1:   1:   1)
(PID.TID 0000.0001) // =======================================================
(PID.TID 0000.0001) Model domain too big to print to terminal - skipping I/O
(PID.TID 0000.0001) // =======================================================
(PID.TID 0000.0001) // Field Model R_low (ini_masks_etc) tile     37 at iteration          1
(PID.TID 0000.0001) // CMIN =         -5.193000000000000E+03
(PID.TID 0000.0001) // CMAX =         -9.700000000000000E+01
(PID.TID 0000.0001) // CINT =          0.000000000000000E+00
(PID.TID 0000.0001) // SYMBOLS (CMIN->CMAX): -abcdefghijklmnopqrstuvwxyz+
(PID.TID 0000.0001) //                  0.0: .
(PID.TID 0000.0001) // RANGE I (Lo:Hi:Step):( 287: 298:   1)
(PID.TID 0000.0001) // RANGE J (Lo:Hi:Step):(   6:  -1:  -1)
(PID.TID 0000.0001) // RANGE K (Lo:Hi:Step):(   1:   1:   1)
(PID.TID 0000.0001) // =======================================================
(PID.TID 0000.0001) Model domain too big to print to terminal - skipping I/O
(PID.TID 0000.0001) // =======================================================
(PID.TID 0000.0001) // Field Model R_low (ini_masks_etc) tile     38 at iteration          1
(PID.TID 0000.0001) // CMIN =         -5.200000000000000E+03
(PID.TID 0000.0001) // CMAX =         -2.895000000000000E+03
(PID.TID 0000.0001) // CINT =          0.000000000000000E+00
(PID.TID 0000.0001) // SYMBOLS (CMIN->CMAX): -abcdefghijklmnopqrstuvwxyz+
(PID.TID 0000.0001) //                  0.0: .
(PID.TID 0000.0001) // RANGE I (Lo:Hi:Step):( 295: 306:   1)
(PID.TID 0000.0001) // RANGE J (Lo:Hi:Step):(   6:  -1:  -1)
(PID.TID 0000.0001) // RANGE K (Lo:Hi:Step):(   1:   1:   1)
(PID.TID 0000.0001) // =======================================================
(PID.TID 0000.0001) Model domain too big to print to terminal - skipping I/O
(PID.TID 0000.0001) // =======================================================
(PID.TID 0000.0001) // Field Model R_low (ini_masks_etc) tile     39 at iteration          1
(PID.TID 0000.0001) // CMIN =         -5.200000000000000E+03
(PID.TID 0000.0001) // CMAX =         -5.000000000000000E+01
(PID.TID 0000.0001) // CINT =          0.000000000000000E+00
(PID.TID 0000.0001) // SYMBOLS (CMIN->CMAX): -abcdefghijklmnopqrstuvwxyz+
(PID.TID 0000.0001) //                  0.0: .
(PID.TID 0000.0001) // RANGE I (Lo:Hi:Step):( 303: 314:   1)
(PID.TID 0000.0001) // RANGE J (Lo:Hi:Step):(   6:  -1:  -1)
(PID.TID 0000.0001) // RANGE K (Lo:Hi:Step):(   1:   1:   1)
(PID.TID 0000.0001) // =======================================================
(PID.TID 0000.0001) Model domain too big to print to terminal - skipping I/O
(PID.TID 0000.0001) // =======================================================
(PID.TID 0000.0001) // Field Model R_low (ini_masks_etc) tile     40 at iteration          1
(PID.TID 0000.0001) // CMIN =         -5.200000000000000E+03
(PID.TID 0000.0001) // CMAX =         -5.000000000000000E+01
(PID.TID 0000.0001) // CINT =          0.000000000000000E+00
(PID.TID 0000.0001) // SYMBOLS (CMIN->CMAX): -abcdefghijklmnopqrstuvwxyz+
(PID.TID 0000.0001) //                  0.0: .
(PID.TID 0000.0001) // RANGE I (Lo:Hi:Step):( 311: 322:   1)
(PID.TID 0000.0001) // RANGE J (Lo:Hi:Step):(   6:  -1:  -1)
(PID.TID 0000.0001) // RANGE K (Lo:Hi:Step):(   1:   1:   1)
(PID.TID 0000.0001) // =======================================================
(PID.TID 0000.0001) Model domain too big to print to terminal - skipping I/O
(PID.TID 0000.0001) // =======================================================
(PID.TID 0000.0001) // Field Model R_low (ini_masks_etc) tile     41 at iteration          1
(PID.TID 0000.0001) // CMIN =         -5.061000000000000E+03
(PID.TID 0000.0001) // CMAX =         -9.700000000000000E+01
(PID.TID 0000.0001) // CINT =          0.000000000000000E+00
(PID.TID 0000.0001) // SYMBOLS (CMIN->CMAX): -abcdefghijklmnopqrstuvwxyz+
(PID.TID 0000.0001) //                  0.0: .
(PID.TID 0000.0001) // RANGE I (Lo:Hi:Step):( 319: 330:   1)
(PID.TID 0000.0001) // RANGE J (Lo:Hi:Step):(   6:  -1:  -1)
(PID.TID 0000.0001) // RANGE K (Lo:Hi:Step):(   1:   1:   1)
(PID.TID 0000.0001) // =======================================================
(PID.TID 0000.0001) Model domain too big to print to terminal - skipping I/O
(PID.TID 0000.0001) // =======================================================
(PID.TID 0000.0001) // Field Model R_low (ini_masks_etc) tile     42 at iteration          1
(PID.TID 0000.0001) // CMIN =         -5.200000000000000E+03
(PID.TID 0000.0001) // CMAX =         -2.979000000000000E+03
(PID.TID 0000.0001) // CINT =          0.000000000000000E+00
(PID.TID 0000.0001) // SYMBOLS (CMIN->CMAX): -abcdefghijklmnopqrstuvwxyz+
(PID.TID 0000.0001) //                  0.0: .
(PID.TID 0000.0001) // RANGE I (Lo:Hi:Step):( 327: 338:   1)
(PID.TID 0000.0001) // RANGE J (Lo:Hi:Step):(   6:  -1:  -1)
(PID.TID 0000.0001) // RANGE K (Lo:Hi:Step):(   1:   1:   1)
(PID.TID 0000.0001) // =======================================================
(PID.TID 0000.0001) Model domain too big to print to terminal - skipping I/O
(PID.TID 0000.0001) // =======================================================
(PID.TID 0000.0001) // Field Model R_low (ini_masks_etc) tile     43 at iteration          1
(PID.TID 0000.0001) // CMIN =         -5.200000000000000E+03
(PID.TID 0000.0001) // CMAX =         -5.000000000000000E+01
(PID.TID 0000.0001) // CINT =          0.000000000000000E+00
(PID.TID 0000.0001) // SYMBOLS (CMIN->CMAX): -abcdefghijklmnopqrstuvwxyz+
(PID.TID 0000.0001) //                  0.0: .
(PID.TID 0000.0001) // RANGE I (Lo:Hi:Step):( 335: 346:   1)
(PID.TID 0000.0001) // RANGE J (Lo:Hi:Step):(   6:  -1:  -1)
(PID.TID 0000.0001) // RANGE K (Lo:Hi:Step):(   1:   1:   1)
(PID.TID 0000.0001) // =======================================================
(PID.TID 0000.0001) Model domain too big to print to terminal - skipping I/O
(PID.TID 0000.0001) // =======================================================
(PID.TID 0000.0001) // Field Model R_low (ini_masks_etc) tile     44 at iteration          1
(PID.TID 0000.0001) // CMIN =         -5.200000000000000E+03
(PID.TID 0000.0001) // CMAX =         -5.000000000000000E+01
(PID.TID 0000.0001) // CINT =          0.000000000000000E+00
(PID.TID 0000.0001) // SYMBOLS (CMIN->CMAX): -abcdefghijklmnopqrstuvwxyz+
(PID.TID 0000.0001) //                  0.0: .
(PID.TID 0000.0001) // RANGE I (Lo:Hi:Step):( 343: 354:   1)
(PID.TID 0000.0001) // RANGE J (Lo:Hi:Step):(   6:  -1:  -1)
(PID.TID 0000.0001) // RANGE K (Lo:Hi:Step):(   1:   1:   1)
(PID.TID 0000.0001) // =======================================================
(PID.TID 0000.0001) Model domain too big to print to terminal - skipping I/O
(PID.TID 0000.0001) // =======================================================
(PID.TID 0000.0001) // Field Model R_low (ini_masks_etc) tile     45 at iteration          1
(PID.TID 0000.0001) // CMIN =         -4.998000000000000E+03
(PID.TID 0000.0001) // CMAX =         -1.609000000000000E+03
(PID.TID 0000.0001) // CINT =          0.000000000000000E+00
(PID.TID 0000.0001) // SYMBOLS (CMIN->CMAX): -abcdefghijklmnopqrstuvwxyz+
(PID.TID 0000.0001) //                  0.0: .
(PID.TID 0000.0001) // RANGE I (Lo:Hi:Step):( 351: 362:   1)
(PID.TID 0000.0001) // RANGE J (Lo:Hi:Step):(   6:  -1:  -1)
(PID.TID 0000.0001) // RANGE K (Lo:Hi:Step):(   1:   1:   1)
(PID.TID 0000.0001) // =======================================================
(PID.TID 0000.0001) Model domain too big to print to terminal - skipping I/O
(PID.TID 0000.0001) // =======================================================
(PID.TID 0000.0001) // Field Model R_low (ini_masks_etc) tile     46 at iteration          1
(PID.TID 0000.0001) // CMIN =         -5.200000000000000E+03
(PID.TID 0000.0001) // CMAX =         -1.459000000000000E+03
(PID.TID 0000.0001) // CINT =          0.000000000000000E+00
(PID.TID 0000.0001) // SYMBOLS (CMIN->CMAX): -abcdefghijklmnopqrstuvwxyz+
(PID.TID 0000.0001) //                  0.0: .
(PID.TID 0000.0001) // RANGE I (Lo:Hi:Step):( 359: 370:   1)
(PID.TID 0000.0001) // RANGE J (Lo:Hi:Step):(   6:  -1:  -1)
(PID.TID 0000.0001) // RANGE K (Lo:Hi:Step):(   1:   1:   1)
(PID.TID 0000.0001) // =======================================================
(PID.TID 0000.0001) Model domain too big to print to terminal - skipping I/O
(PID.TID 0000.0001) // =======================================================
(PID.TID 0000.0001) // Field Model R_low (ini_masks_etc) tile     47 at iteration          1
(PID.TID 0000.0001) // CMIN =         -5.200000000000000E+03
(PID.TID 0000.0001) // CMAX =         -5.000000000000000E+01
(PID.TID 0000.0001) // CINT =          0.000000000000000E+00
(PID.TID 0000.0001) // SYMBOLS (CMIN->CMAX): -abcdefghijklmnopqrstuvwxyz+
(PID.TID 0000.0001) //                  0.0: .
(PID.TID 0000.0001) // RANGE I (Lo:Hi:Step):( 367: 378:   1)
(PID.TID 0000.0001) // RANGE J (Lo:Hi:Step):(   6:  -1:  -1)
(PID.TID 0000.0001) // RANGE K (Lo:Hi:Step):(   1:   1:   1)
(PID.TID 0000.0001) // =======================================================
(PID.TID 0000.0001) Model domain too big to print to terminal - skipping I/O
(PID.TID 0000.0001) // =======================================================
(PID.TID 0000.0001) // Field Model R_low (ini_masks_etc) tile     48 at iteration          1
(PID.TID 0000.0001) // CMIN =         -5.200000000000000E+03
(PID.TID 0000.0001) // CMAX =         -5.000000000000000E+01
(PID.TID 0000.0001) // CINT =          0.000000000000000E+00
(PID.TID 0000.0001) // SYMBOLS (CMIN->CMAX): -abcdefghijklmnopqrstuvwxyz+
(PID.TID 0000.0001) //                  0.0: .
(PID.TID 0000.0001) // RANGE I (Lo:Hi:Step):( 375: 386:   1)
(PID.TID 0000.0001) // RANGE J (Lo:Hi:Step):(   6:  -1:  -1)
(PID.TID 0000.0001) // RANGE K (Lo:Hi:Step):(   1:   1:   1)
(PID.TID 0000.0001) // =======================================================
(PID.TID 0000.0001) Model domain too big to print to terminal - skipping I/O
(PID.TID 0000.0001) // =======================================================
(PID.TID 0000.0001) // Field Model R_low (ini_masks_etc) tile     49 at iteration          1
(PID.TID 0000.0001) // CMIN =         -5.033000000000000E+03
(PID.TID 0000.0001) // CMAX =         -1.723333333333333E+02
(PID.TID 0000.0001) // CINT =          0.000000000000000E+00
(PID.TID 0000.0001) // SYMBOLS (CMIN->CMAX): -abcdefghijklmnopqrstuvwxyz+
(PID.TID 0000.0001) //                  0.0: .
(PID.TID 0000.0001) // RANGE I (Lo:Hi:Step):( 383: 394:   1)
(PID.TID 0000.0001) // RANGE J (Lo:Hi:Step):(   6:  -1:  -1)
(PID.TID 0000.0001) // RANGE K (Lo:Hi:Step):(   1:   1:   1)
(PID.TID 0000.0001) // =======================================================
(PID.TID 0000.0001) Model domain too big to print to terminal - skipping I/O
(PID.TID 0000.0001) // =======================================================
(PID.TID 0000.0001) // Field Model R_low (ini_masks_etc) tile     50 at iteration          1
(PID.TID 0000.0001) // CMIN =         -5.010000000000000E+03
(PID.TID 0000.0001) // CMAX =         -5.000000000000000E+01
(PID.TID 0000.0001) // CINT =          0.000000000000000E+00
(PID.TID 0000.0001) // SYMBOLS (CMIN->CMAX): -abcdefghijklmnopqrstuvwxyz+
(PID.TID 0000.0001) //                  0.0: .
(PID.TID 0000.0001) // RANGE I (Lo:Hi:Step):( 391: 402:   1)
(PID.TID 0000.0001) // RANGE J (Lo:Hi:Step):(   6:  -1:  -1)
(PID.TID 0000.0001) // RANGE K (Lo:Hi:Step):(   1:   1:   1)
(PID.TID 0000.0001) // =======================================================
(PID.TID 0000.0001) Model domain too big to print to terminal - skipping I/O
(PID.TID 0000.0001) // =======================================================
(PID.TID 0000.0001) // Field Model R_low (ini_masks_etc) tile     51 at iteration          1
(PID.TID 0000.0001) // CMIN =         -4.921000000000000E+03
(PID.TID 0000.0001) // CMAX =         -5.000000000000000E+01
(PID.TID 0000.0001) // CINT =          0.000000000000000E+00
(PID.TID 0000.0001) // SYMBOLS (CMIN->CMAX): -abcdefghijklmnopqrstuvwxyz+
(PID.TID 0000.0001) //                  0.0: .
(PID.TID 0000.0001) // RANGE I (Lo:Hi:Step):( 399: 410:   1)
(PID.TID 0000.0001) // RANGE J (Lo:Hi:Step):(   6:  -1:  -1)
(PID.TID 0000.0001) // RANGE K (Lo:Hi:Step):(   1:   1:   1)
(PID.TID 0000.0001) // =======================================================
(PID.TID 0000.0001) Model domain too big to print to terminal - skipping I/O
(PID.TID 0000.0001) // =======================================================
(PID.TID 0000.0001) // Field Model R_low (ini_masks_etc) tile     52 at iteration          1
(PID.TID 0000.0001) // CMIN =         -5.200000000000000E+03
(PID.TID 0000.0001) // CMAX =         -5.000000000000000E+01
(PID.TID 0000.0001) // CINT =          0.000000000000000E+00
(PID.TID 0000.0001) // SYMBOLS (CMIN->CMAX): -abcdefghijklmnopqrstuvwxyz+
(PID.TID 0000.0001) //                  0.0: .
(PID.TID 0000.0001) // RANGE I (Lo:Hi:Step):( 407: 418:   1)
(PID.TID 0000.0001) // RANGE J (Lo:Hi:Step):(   6:  -1:  -1)
(PID.TID 0000.0001) // RANGE K (Lo:Hi:Step):(   1:   1:   1)
(PID.TID 0000.0001) // =======================================================
(PID.TID 0000.0001) Model domain too big to print to terminal - skipping I/O
(PID.TID 0000.0001) // =======================================================
(PID.TID 0000.0001) // Field Model R_low (ini_masks_etc) tile     53 at iteration          1
(PID.TID 0000.0001) // CMIN =         -5.033000000000000E+03
(PID.TID 0000.0001) // CMAX =         -5.000000000000000E+01
(PID.TID 0000.0001) // CINT =          0.000000000000000E+00
(PID.TID 0000.0001) // SYMBOLS (CMIN->CMAX): -abcdefghijklmnopqrstuvwxyz+
(PID.TID 0000.0001) //                  0.0: .
(PID.TID 0000.0001) // RANGE I (Lo:Hi:Step):( 415: 426:   1)
(PID.TID 0000.0001) // RANGE J (Lo:Hi:Step):(   6:  -1:  -1)
(PID.TID 0000.0001) // RANGE K (Lo:Hi:Step):(   1:   1:   1)
(PID.TID 0000.0001) // =======================================================
(PID.TID 0000.0001) Model domain too big to print to terminal - skipping I/O
(PID.TID 0000.0001) // =======================================================
(PID.TID 0000.0001) // Field Model R_low (ini_masks_etc) tile     54 at iteration          1
(PID.TID 0000.0001) // CMIN =         -4.579000000000000E+03
(PID.TID 0000.0001) // CMAX =         -5.000000000000000E+01
(PID.TID 0000.0001) // CINT =          0.000000000000000E+00
(PID.TID 0000.0001) // SYMBOLS (CMIN->CMAX): -abcdefghijklmnopqrstuvwxyz+
(PID.TID 0000.0001) //                  0.0: .
(PID.TID 0000.0001) // RANGE I (Lo:Hi:Step):( 423: 434:   1)
(PID.TID 0000.0001) // RANGE J (Lo:Hi:Step):(   6:  -1:  -1)
(PID.TID 0000.0001) // RANGE K (Lo:Hi:Step):(   1:   1:   1)
(PID.TID 0000.0001) // =======================================================
(PID.TID 0000.0001) Model domain too big to print to terminal - skipping I/O
(PID.TID 0000.0001) // =======================================================
(PID.TID 0000.0001) // Field Model R_low (ini_masks_etc) tile     55 at iteration          1
(PID.TID 0000.0001) // CMIN =         -4.061000000000000E+03
(PID.TID 0000.0001) // CMAX =         -5.000000000000000E+01
(PID.TID 0000.0001) // CINT =          0.000000000000000E+00
(PID.TID 0000.0001) // SYMBOLS (CMIN->CMAX): -abcdefghijklmnopqrstuvwxyz+
(PID.TID 0000.0001) //                  0.0: .
(PID.TID 0000.0001) // RANGE I (Lo:Hi:Step):( 431: 442:   1)
(PID.TID 0000.0001) // RANGE J (Lo:Hi:Step):(   6:  -1:  -1)
(PID.TID 0000.0001) // RANGE K (Lo:Hi:Step):(   1:   1:   1)
(PID.TID 0000.0001) // =======================================================
(PID.TID 0000.0001) Model domain too big to print to terminal - skipping I/O
(PID.TID 0000.0001) // =======================================================
(PID.TID 0000.0001) // Field Model R_low (ini_masks_etc) tile     56 at iteration          1
(PID.TID 0000.0001) // CMIN =         -5.200000000000000E+03
(PID.TID 0000.0001) // CMAX =         -5.000000000000000E+01
(PID.TID 0000.0001) // CINT =          0.000000000000000E+00
(PID.TID 0000.0001) // SYMBOLS (CMIN->CMAX): -abcdefghijklmnopqrstuvwxyz+
(PID.TID 0000.0001) //                  0.0: .
(PID.TID 0000.0001) // RANGE I (Lo:Hi:Step):( 439: 450:   1)
(PID.TID 0000.0001) // RANGE J (Lo:Hi:Step):(   6:  -1:  -1)
(PID.TID 0000.0001) // RANGE K (Lo:Hi:Step):(   1:   1:   1)
(PID.TID 0000.0001) // =======================================================
(PID.TID 0000.0001) Model domain too big to print to terminal - skipping I/O
(PID.TID 0000.0001) // =======================================================
(PID.TID 0000.0001) // Field Model R_low (ini_masks_etc) tile     57 at iteration          1
(PID.TID 0000.0001) // CMIN =         -3.746000000000000E+03
(PID.TID 0000.0001) // CMAX =         -5.000000000000000E+01
(PID.TID 0000.0001) // CINT =          0.000000000000000E+00
(PID.TID 0000.0001) // SYMBOLS (CMIN->CMAX): -abcdefghijklmnopqrstuvwxyz+
(PID.TID 0000.0001) //                  0.0: .
(PID.TID 0000.0001) // RANGE I (Lo:Hi:Step):( 447: 458:   1)
(PID.TID 0000.0001) // RANGE J (Lo:Hi:Step):(   6:  -1:  -1)
(PID.TID 0000.0001) // RANGE K (Lo:Hi:Step):(   1:   1:   1)
(PID.TID 0000.0001) // =======================================================
(PID.TID 0000.0001) Model domain too big to print to terminal - skipping I/O
(PID.TID 0000.0001) // =======================================================
(PID.TID 0000.0001) // Field Model R_low (ini_masks_etc) tile     58 at iteration          1
(PID.TID 0000.0001) // CMIN =         -3.746000000000000E+03
(PID.TID 0000.0001) // CMAX =         -5.000000000000000E+01
(PID.TID 0000.0001) // CINT =          0.000000000000000E+00
(PID.TID 0000.0001) // SYMBOLS (CMIN->CMAX): -abcdefghijklmnopqrstuvwxyz+
(PID.TID 0000.0001) //                  0.0: .
(PID.TID 0000.0001) // RANGE I (Lo:Hi:Step):( 455: 466:   1)
(PID.TID 0000.0001) // RANGE J (Lo:Hi:Step):(   6:  -1:  -1)
(PID.TID 0000.0001) // RANGE K (Lo:Hi:Step):(   1:   1:   1)
(PID.TID 0000.0001) // =======================================================
(PID.TID 0000.0001) Model domain too big to print to terminal - skipping I/O
(PID.TID 0000.0001) // =======================================================
(PID.TID 0000.0001) // Field Model R_low (ini_masks_etc) tile     59 at iteration          1
(PID.TID 0000.0001) // CMIN =         -3.870000000000000E+03
(PID.TID 0000.0001) // CMAX =         -5.000000000000000E+01
(PID.TID 0000.0001) // CINT =          0.000000000000000E+00
(PID.TID 0000.0001) // SYMBOLS (CMIN->CMAX): -abcdefghijklmnopqrstuvwxyz+
(PID.TID 0000.0001) //                  0.0: .
(PID.TID 0000.0001) // RANGE I (Lo:Hi:Step):( 463: 474:   1)
(PID.TID 0000.0001) // RANGE J (Lo:Hi:Step):(   6:  -1:  -1)
(PID.TID 0000.0001) // RANGE K (Lo:Hi:Step):(   1:   1:   1)
(PID.TID 0000.0001) // =======================================================
(PID.TID 0000.0001) Model domain too big to print to terminal - skipping I/O
(PID.TID 0000.0001) // =======================================================
(PID.TID 0000.0001) // Field Model R_low (ini_masks_etc) tile     60 at iteration          1
(PID.TID 0000.0001) // CMIN =         -5.200000000000000E+03
(PID.TID 0000.0001) // CMAX =         -5.000000000000000E+01
(PID.TID 0000.0001) // CINT =          0.000000000000000E+00
(PID.TID 0000.0001) // SYMBOLS (CMIN->CMAX): -abcdefghijklmnopqrstuvwxyz+
(PID.TID 0000.0001) //                  0.0: .
(PID.TID 0000.0001) // RANGE I (Lo:Hi:Step):( 471: 482:   1)
(PID.TID 0000.0001) // RANGE J (Lo:Hi:Step):(   6:  -1:  -1)
(PID.TID 0000.0001) // RANGE K (Lo:Hi:Step):(   1:   1:   1)
(PID.TID 0000.0001) // =======================================================
(PID.TID 0000.0001) Model domain too big to print to terminal - skipping I/O
(PID.TID 0000.0001) // =======================================================
(PID.TID 0000.0001) // Field Model R_low (ini_masks_etc) tile     61 at iteration          1
(PID.TID 0000.0001) // CMIN =         -5.000000000000000E+01
(PID.TID 0000.0001) // CMAX =         -5.000000000000000E+01
(PID.TID 0000.0001) // CINT =          0.000000000000000E+00
(PID.TID 0000.0001) // SYMBOLS (CMIN->CMAX): -abcdefghijklmnopqrstuvwxyz+
(PID.TID 0000.0001) //                  0.0: .
(PID.TID 0000.0001) // RANGE I (Lo:Hi:Step):( 479: 490:   1)
(PID.TID 0000.0001) // RANGE J (Lo:Hi:Step):(   6:  -1:  -1)
(PID.TID 0000.0001) // RANGE K (Lo:Hi:Step):(   1:   1:   1)
(PID.TID 0000.0001) // =======================================================
(PID.TID 0000.0001) Model domain too big to print to terminal - skipping I/O
(PID.TID 0000.0001) // =======================================================
(PID.TID 0000.0001) // Field Model R_low (ini_masks_etc) tile     62 at iteration          1
(PID.TID 0000.0001) // CMIN =          1.000000000000000E+32
(PID.TID 0000.0001) // CMAX =         -1.000000000000000E+32
(PID.TID 0000.0001) // CINT =          0.000000000000000E+00
(PID.TID 0000.0001) // SYMBOLS (CMIN->CMAX): -abcdefghijklmnopqrstuvwxyz+
(PID.TID 0000.0001) //                  0.0: .
(PID.TID 0000.0001) // RANGE I (Lo:Hi:Step):( 487: 498:   1)
(PID.TID 0000.0001) // RANGE J (Lo:Hi:Step):(   6:  -1:  -1)
(PID.TID 0000.0001) // RANGE K (Lo:Hi:Step):(   1:   1:   1)
(PID.TID 0000.0001) // =======================================================
(PID.TID 0000.0001) Model domain too big to print to terminal - skipping I/O
(PID.TID 0000.0001) // =======================================================
(PID.TID 0000.0001) // Field Model R_low (ini_masks_etc) tile     63 at iteration          1
(PID.TID 0000.0001) // CMIN =         -5.000000000000000E+01
(PID.TID 0000.0001) // CMAX =         -5.000000000000000E+01
(PID.TID 0000.0001) // CINT =          0.000000000000000E+00
(PID.TID 0000.0001) // SYMBOLS (CMIN->CMAX): -abcdefghijklmnopqrstuvwxyz+
(PID.TID 0000.0001) //                  0.0: .
(PID.TID 0000.0001) // RANGE I (Lo:Hi:Step):( 495: 506:   1)
(PID.TID 0000.0001) // RANGE J (Lo:Hi:Step):(   6:  -1:  -1)
(PID.TID 0000.0001) // RANGE K (Lo:Hi:Step):(   1:   1:   1)
(PID.TID 0000.0001) // =======================================================
(PID.TID 0000.0001) Model domain too big to print to terminal - skipping I/O
(PID.TID 0000.0001) // =======================================================
(PID.TID 0000.0001) // Field Model R_low (ini_masks_etc) tile     64 at iteration          1
(PID.TID 0000.0001) // CMIN =         -4.857000000000000E+03
(PID.TID 0000.0001) // CMAX =         -5.000000000000000E+01
(PID.TID 0000.0001) // CINT =          0.000000000000000E+00
(PID.TID 0000.0001) // SYMBOLS (CMIN->CMAX): -abcdefghijklmnopqrstuvwxyz+
(PID.TID 0000.0001) //                  0.0: .
(PID.TID 0000.0001) // RANGE I (Lo:Hi:Step):( 503: 514:   1)
(PID.TID 0000.0001) // RANGE J (Lo:Hi:Step):(   6:  -1:  -1)
(PID.TID 0000.0001) // RANGE K (Lo:Hi:Step):(   1:   1:   1)
(PID.TID 0000.0001) // =======================================================
(PID.TID 0000.0001) Model domain too big to print to terminal - skipping I/O
(PID.TID 0000.0001) // =======================================================
(PID.TID 0000.0001) // Field Model R_low (ini_masks_etc) tile     65 at iteration          1
(PID.TID 0000.0001) // CMIN =         -2.150000000000000E+03
(PID.TID 0000.0001) // CMAX =         -1.220000000000000E+03
(PID.TID 0000.0001) // CINT =          0.000000000000000E+00
(PID.TID 0000.0001) // SYMBOLS (CMIN->CMAX): -abcdefghijklmnopqrstuvwxyz+
(PID.TID 0000.0001) //                  0.0: .
(PID.TID 0000.0001) // RANGE I (Lo:Hi:Step):( 511: 522:   1)
(PID.TID 0000.0001) // RANGE J (Lo:Hi:Step):(   6:  -1:  -1)
(PID.TID 0000.0001) // RANGE K (Lo:Hi:Step):(   1:   1:   1)
(PID.TID 0000.0001) // =======================================================
(PID.TID 0000.0001) Model domain too big to print to terminal - skipping I/O
(PID.TID 0000.0001) // =======================================================
(PID.TID 0000.0001) // Field Model R_low (ini_masks_etc) tile     66 at iteration          1
(PID.TID 0000.0001) // CMIN =          1.000000000000000E+32
(PID.TID 0000.0001) // CMAX =         -1.000000000000000E+32
(PID.TID 0000.0001) // CINT =          0.000000000000000E+00
(PID.TID 0000.0001) // SYMBOLS (CMIN->CMAX): -abcdefghijklmnopqrstuvwxyz+
(PID.TID 0000.0001) //                  0.0: .
(PID.TID 0000.0001) // RANGE I (Lo:Hi:Step):( 519: 530:   1)
(PID.TID 0000.0001) // RANGE J (Lo:Hi:Step):(   6:  -1:  -1)
(PID.TID 0000.0001) // RANGE K (Lo:Hi:Step):(   1:   1:   1)
(PID.TID 0000.0001) // =======================================================
(PID.TID 0000.0001) Model domain too big to print to terminal - skipping I/O
(PID.TID 0000.0001) // =======================================================
(PID.TID 0000.0001) // Field Model R_low (ini_masks_etc) tile     67 at iteration          1
(PID.TID 0000.0001) // CMIN =         -5.000000000000000E+01
(PID.TID 0000.0001) // CMAX =         -5.000000000000000E+01
(PID.TID 0000.0001) // CINT =          0.000000000000000E+00
(PID.TID 0000.0001) // SYMBOLS (CMIN->CMAX): -abcdefghijklmnopqrstuvwxyz+
(PID.TID 0000.0001) //                  0.0: .
(PID.TID 0000.0001) // RANGE I (Lo:Hi:Step):( 527: 538:   1)
(PID.TID 0000.0001) // RANGE J (Lo:Hi:Step):(   6:  -1:  -1)
(PID.TID 0000.0001) // RANGE K (Lo:Hi:Step):(   1:   1:   1)
(PID.TID 0000.0001) // =======================================================
(PID.TID 0000.0001) Model domain too big to print to terminal - skipping I/O
(PID.TID 0000.0001) // =======================================================
(PID.TID 0000.0001) // Field Model R_low (ini_masks_etc) tile     68 at iteration          1
(PID.TID 0000.0001) // CMIN =         -5.200000000000000E+03
(PID.TID 0000.0001) // CMAX =         -5.000000000000000E+01
(PID.TID 0000.0001) // CINT =          0.000000000000000E+00
(PID.TID 0000.0001) // SYMBOLS (CMIN->CMAX): -abcdefghijklmnopqrstuvwxyz+
(PID.TID 0000.0001) //                  0.0: .
(PID.TID 0000.0001) // RANGE I (Lo:Hi:Step):( 535: 546:   1)
(PID.TID 0000.0001) // RANGE J (Lo:Hi:Step):(   6:  -1:  -1)
(PID.TID 0000.0001) // RANGE K (Lo:Hi:Step):(   1:   1:   1)
(PID.TID 0000.0001) // =======================================================
(PID.TID 0000.0001) Model domain too big to print to terminal - skipping I/O
(PID.TID 0000.0001) // =======================================================
(PID.TID 0000.0001) // Field Model R_low (ini_masks_etc) tile     69 at iteration          1
(PID.TID 0000.0001) // CMIN =         -2.150000000000000E+03
(PID.TID 0000.0001) // CMAX =         -5.000000000000000E+01
(PID.TID 0000.0001) // CINT =          0.000000000000000E+00
(PID.TID 0000.0001) // SYMBOLS (CMIN->CMAX): -abcdefghijklmnopqrstuvwxyz+
(PID.TID 0000.0001) //                  0.0: .
(PID.TID 0000.0001) // RANGE I (Lo:Hi:Step):( 543: 554:   1)
(PID.TID 0000.0001) // RANGE J (Lo:Hi:Step):(   6:  -1:  -1)
(PID.TID 0000.0001) // RANGE K (Lo:Hi:Step):(   1:   1:   1)
(PID.TID 0000.0001) // =======================================================
(PID.TID 0000.0001) Model domain too big to print to terminal - skipping I/O
(PID.TID 0000.0001) // =======================================================
(PID.TID 0000.0001) // Field Model R_low (ini_masks_etc) tile     70 at iteration          1
(PID.TID 0000.0001) // CMIN =          1.000000000000000E+32
(PID.TID 0000.0001) // CMAX =         -1.000000000000000E+32
(PID.TID 0000.0001) // CINT =          0.000000000000000E+00
(PID.TID 0000.0001) // SYMBOLS (CMIN->CMAX): -abcdefghijklmnopqrstuvwxyz+
(PID.TID 0000.0001) //                  0.0: .
(PID.TID 0000.0001) // RANGE I (Lo:Hi:Step):( 551: 562:   1)
(PID.TID 0000.0001) // RANGE J (Lo:Hi:Step):(   6:  -1:  -1)
(PID.TID 0000.0001) // RANGE K (Lo:Hi:Step):(   1:   1:   1)
(PID.TID 0000.0001) // =======================================================
(PID.TID 0000.0001) Model domain too big to print to terminal - skipping I/O
(PID.TID 0000.0001) // =======================================================
(PID.TID 0000.0001) // Field Model R_low (ini_masks_etc) tile     71 at iteration          1
(PID.TID 0000.0001) // CMIN =         -1.740000000000000E+02
(PID.TID 0000.0001) // CMAX =         -1.680000000000000E+02
(PID.TID 0000.0001) // CINT =          0.000000000000000E+00
(PID.TID 0000.0001) // SYMBOLS (CMIN->CMAX): -abcdefghijklmnopqrstuvwxyz+
(PID.TID 0000.0001) //                  0.0: .
(PID.TID 0000.0001) // RANGE I (Lo:Hi:Step):( 559: 570:   1)
(PID.TID 0000.0001) // RANGE J (Lo:Hi:Step):(   6:  -1:  -1)
(PID.TID 0000.0001) // RANGE K (Lo:Hi:Step):(   1:   1:   1)
(PID.TID 0000.0001) // =======================================================
(PID.TID 0000.0001) Model domain too big to print to terminal - skipping I/O
(PID.TID 0000.0001) // =======================================================
(PID.TID 0000.0001) // Field Model R_low (ini_masks_etc) tile     72 at iteration          1
(PID.TID 0000.0001) // CMIN =         -5.200000000000000E+03
(PID.TID 0000.0001) // CMAX =         -7.512665065472679E+01
(PID.TID 0000.0001) // CINT =          0.000000000000000E+00
(PID.TID 0000.0001) // SYMBOLS (CMIN->CMAX): -abcdefghijklmnopqrstuvwxyz+
(PID.TID 0000.0001) //                  0.0: .
(PID.TID 0000.0001) // RANGE I (Lo:Hi:Step):( 567: 578:   1)
(PID.TID 0000.0001) // RANGE J (Lo:Hi:Step):(   6:  -1:  -1)
(PID.TID 0000.0001) // RANGE K (Lo:Hi:Step):(   1:   1:   1)
(PID.TID 0000.0001) // =======================================================
(PID.TID 0000.0001) Model domain too big to print to terminal - skipping I/O
(PID.TID 0000.0001) // =======================================================
(PID.TID 0000.0001) // Field Model R_low (ini_masks_etc) tile     73 at iteration          1
(PID.TID 0000.0001) // CMIN =         -2.150000000000000E+03
(PID.TID 0000.0001) // CMAX =         -5.000000000000000E+01
(PID.TID 0000.0001) // CINT =          0.000000000000000E+00
(PID.TID 0000.0001) // SYMBOLS (CMIN->CMAX): -abcdefghijklmnopqrstuvwxyz+
(PID.TID 0000.0001) //                  0.0: .
(PID.TID 0000.0001) // RANGE I (Lo:Hi:Step):( 575: 586:   1)
(PID.TID 0000.0001) // RANGE J (Lo:Hi:Step):(   6:  -1:  -1)
(PID.TID 0000.0001) // RANGE K (Lo:Hi:Step):(   1:   1:   1)
(PID.TID 0000.0001) // =======================================================
(PID.TID 0000.0001) Model domain too big to print to terminal - skipping I/O
(PID.TID 0000.0001) // =======================================================
(PID.TID 0000.0001) // Field Model R_low (ini_masks_etc) tile     74 at iteration          1
(PID.TID 0000.0001) // CMIN =         -3.503000000000000E+03
(PID.TID 0000.0001) // CMAX =         -5.000000000000000E+01
(PID.TID 0000.0001) // CINT =          0.000000000000000E+00
(PID.TID 0000.0001) // SYMBOLS (CMIN->CMAX): -abcdefghijklmnopqrstuvwxyz+
(PID.TID 0000.0001) //                  0.0: .
(PID.TID 0000.0001) // RANGE I (Lo:Hi:Step):( 583: 594:   1)
(PID.TID 0000.0001) // RANGE J (Lo:Hi:Step):(   6:  -1:  -1)
(PID.TID 0000.0001) // RANGE K (Lo:Hi:Step):(   1:   1:   1)
(PID.TID 0000.0001) // =======================================================
(PID.TID 0000.0001) Model domain too big to print to terminal - skipping I/O
(PID.TID 0000.0001) // =======================================================
(PID.TID 0000.0001) // Field Model R_low (ini_masks_etc) tile     75 at iteration          1
(PID.TID 0000.0001) // CMIN =         -3.503000000000000E+03
(PID.TID 0000.0001) // CMAX =         -5.000000000000000E+01
(PID.TID 0000.0001) // CINT =          0.000000000000000E+00
(PID.TID 0000.0001) // SYMBOLS (CMIN->CMAX): -abcdefghijklmnopqrstuvwxyz+
(PID.TID 0000.0001) //                  0.0: .
(PID.TID 0000.0001) // RANGE I (Lo:Hi:Step):( 591: 602:   1)
(PID.TID 0000.0001) // RANGE J (Lo:Hi:Step):(   6:  -1:  -1)
(PID.TID 0000.0001) // RANGE K (Lo:Hi:Step):(   1:   1:   1)
(PID.TID 0000.0001) // =======================================================
(PID.TID 0000.0001) Model domain too big to print to terminal - skipping I/O
(PID.TID 0000.0001) // =======================================================
(PID.TID 0000.0001) // Field Model R_low (ini_masks_etc) tile     76 at iteration          1
(PID.TID 0000.0001) // CMIN =         -5.200000000000000E+03
(PID.TID 0000.0001) // CMAX =         -7.100000000000000E+01
(PID.TID 0000.0001) // CINT =          0.000000000000000E+00
(PID.TID 0000.0001) // SYMBOLS (CMIN->CMAX): -abcdefghijklmnopqrstuvwxyz+
(PID.TID 0000.0001) //                  0.0: .
(PID.TID 0000.0001) // RANGE I (Lo:Hi:Step):( 599: 610:   1)
(PID.TID 0000.0001) // RANGE J (Lo:Hi:Step):(   6:  -1:  -1)
(PID.TID 0000.0001) // RANGE K (Lo:Hi:Step):(   1:   1:   1)
(PID.TID 0000.0001) // =======================================================
(PID.TID 0000.0001) Model domain too big to print to terminal - skipping I/O
(PID.TID 0000.0001) // =======================================================
(PID.TID 0000.0001) // Field Model R_low (ini_masks_etc) tile     77 at iteration          1
(PID.TID 0000.0001) // CMIN =         -4.579000000000000E+03
(PID.TID 0000.0001) // CMAX =         -5.000000000000000E+01
(PID.TID 0000.0001) // CINT =          0.000000000000000E+00
(PID.TID 0000.0001) // SYMBOLS (CMIN->CMAX): -abcdefghijklmnopqrstuvwxyz+
(PID.TID 0000.0001) //                  0.0: .
(PID.TID 0000.0001) // RANGE I (Lo:Hi:Step):( 607: 618:   1)
(PID.TID 0000.0001) // RANGE J (Lo:Hi:Step):(   6:  -1:  -1)
(PID.TID 0000.0001) // RANGE K (Lo:Hi:Step):(   1:   1:   1)
(PID.TID 0000.0001) // =======================================================
(PID.TID 0000.0001) Model domain too big to print to terminal - skipping I/O
(PID.TID 0000.0001) // =======================================================
(PID.TID 0000.0001) // Field Model R_low (ini_masks_etc) tile     78 at iteration          1
(PID.TID 0000.0001) // CMIN =         -3.938000000000000E+03
(PID.TID 0000.0001) // CMAX =         -5.000000000000000E+01
(PID.TID 0000.0001) // CINT =          0.000000000000000E+00
(PID.TID 0000.0001) // SYMBOLS (CMIN->CMAX): -abcdefghijklmnopqrstuvwxyz+
(PID.TID 0000.0001) //                  0.0: .
(PID.TID 0000.0001) // RANGE I (Lo:Hi:Step):( 615: 626:   1)
(PID.TID 0000.0001) // RANGE J (Lo:Hi:Step):(   6:  -1:  -1)
(PID.TID 0000.0001) // RANGE K (Lo:Hi:Step):(   1:   1:   1)
(PID.TID 0000.0001) // =======================================================
(PID.TID 0000.0001) Model domain too big to print to terminal - skipping I/O
(PID.TID 0000.0001) // =======================================================
(PID.TID 0000.0001) // Field Model R_low (ini_masks_etc) tile     79 at iteration          1
(PID.TID 0000.0001) // CMIN =         -3.938000000000000E+03
(PID.TID 0000.0001) // CMAX =         -5.000000000000000E+01
(PID.TID 0000.0001) // CINT =          0.000000000000000E+00
(PID.TID 0000.0001) // SYMBOLS (CMIN->CMAX): -abcdefghijklmnopqrstuvwxyz+
(PID.TID 0000.0001) //                  0.0: .
(PID.TID 0000.0001) // RANGE I (Lo:Hi:Step):( 623: 634:   1)
(PID.TID 0000.0001) // RANGE J (Lo:Hi:Step):(   6:  -1:  -1)
(PID.TID 0000.0001) // RANGE K (Lo:Hi:Step):(   1:   1:   1)
(PID.TID 0000.0001) // =======================================================
(PID.TID 0000.0001) Model domain too big to print to terminal - skipping I/O
(PID.TID 0000.0001) // =======================================================
(PID.TID 0000.0001) // Field Model R_low (ini_masks_etc) tile     80 at iteration          1
(PID.TID 0000.0001) // CMIN =         -5.200000000000000E+03
(PID.TID 0000.0001) // CMAX =         -5.000000000000000E+01
(PID.TID 0000.0001) // CINT =          0.000000000000000E+00
(PID.TID 0000.0001) // SYMBOLS (CMIN->CMAX): -abcdefghijklmnopqrstuvwxyz+
(PID.TID 0000.0001) //                  0.0: .
(PID.TID 0000.0001) // RANGE I (Lo:Hi:Step):( 631: 642:   1)
(PID.TID 0000.0001) // RANGE J (Lo:Hi:Step):(   6:  -1:  -1)
(PID.TID 0000.0001) // RANGE K (Lo:Hi:Step):(   1:   1:   1)
(PID.TID 0000.0001) // =======================================================
(PID.TID 0000.0001) Model domain too big to print to terminal - skipping I/O
(PID.TID 0000.0001) // =======================================================
(PID.TID 0000.0001) // Field Model R_low (ini_masks_etc) tile     81 at iteration          1
(PID.TID 0000.0001) // CMIN =         -5.038000000000000E+03
(PID.TID 0000.0001) // CMAX =         -5.000000000000000E+01
(PID.TID 0000.0001) // CINT =          0.000000000000000E+00
(PID.TID 0000.0001) // SYMBOLS (CMIN->CMAX): -abcdefghijklmnopqrstuvwxyz+
(PID.TID 0000.0001) //                  0.0: .
(PID.TID 0000.0001) // RANGE I (Lo:Hi:Step):( 639: 650:   1)
(PID.TID 0000.0001) // RANGE J (Lo:Hi:Step):(   6:  -1:  -1)
(PID.TID 0000.0001) // RANGE K (Lo:Hi:Step):(   1:   1:   1)
(PID.TID 0000.0001) // =======================================================
(PID.TID 0000.0001) Model domain too big to print to terminal - skipping I/O
(PID.TID 0000.0001) // =======================================================
(PID.TID 0000.0001) // Field Model R_low (ini_masks_etc) tile     82 at iteration          1
(PID.TID 0000.0001) // CMIN =         -3.938000000000000E+03
(PID.TID 0000.0001) // CMAX =         -1.030000000000000E+02
(PID.TID 0000.0001) // CINT =          0.000000000000000E+00
(PID.TID 0000.0001) // SYMBOLS (CMIN->CMAX): -abcdefghijklmnopqrstuvwxyz+
(PID.TID 0000.0001) //                  0.0: .
(PID.TID 0000.0001) // RANGE I (Lo:Hi:Step):( 647: 658:   1)
(PID.TID 0000.0001) // RANGE J (Lo:Hi:Step):(   6:  -1:  -1)
(PID.TID 0000.0001) // RANGE K (Lo:Hi:Step):(   1:   1:   1)
(PID.TID 0000.0001) // =======================================================
(PID.TID 0000.0001) Model domain too big to print to terminal - skipping I/O
(PID.TID 0000.0001) // =======================================================
(PID.TID 0000.0001) // Field Model R_low (ini_masks_etc) tile     83 at iteration          1
(PID.TID 0000.0001) // CMIN =         -3.938000000000000E+03
(PID.TID 0000.0001) // CMAX =         -5.000000000000000E+01
(PID.TID 0000.0001) // CINT =          0.000000000000000E+00
(PID.TID 0000.0001) // SYMBOLS (CMIN->CMAX): -abcdefghijklmnopqrstuvwxyz+
(PID.TID 0000.0001) //                  0.0: .
(PID.TID 0000.0001) // RANGE I (Lo:Hi:Step):( 655: 666:   1)
(PID.TID 0000.0001) // RANGE J (Lo:Hi:Step):(   6:  -1:  -1)
(PID.TID 0000.0001) // RANGE K (Lo:Hi:Step):(   1:   1:   1)
(PID.TID 0000.0001) // =======================================================
(PID.TID 0000.0001) Model domain too big to print to terminal - skipping I/O
(PID.TID 0000.0001) // =======================================================
(PID.TID 0000.0001) // Field Model R_low (ini_masks_etc) tile     84 at iteration          1
(PID.TID 0000.0001) // CMIN =         -5.200000000000000E+03
(PID.TID 0000.0001) // CMAX =         -5.000000000000000E+01
(PID.TID 0000.0001) // CINT =          0.000000000000000E+00
(PID.TID 0000.0001) // SYMBOLS (CMIN->CMAX): -abcdefghijklmnopqrstuvwxyz+
(PID.TID 0000.0001) //                  0.0: .
(PID.TID 0000.0001) // RANGE I (Lo:Hi:Step):( 663: 674:   1)
(PID.TID 0000.0001) // RANGE J (Lo:Hi:Step):(   6:  -1:  -1)
(PID.TID 0000.0001) // RANGE K (Lo:Hi:Step):(   1:   1:   1)
(PID.TID 0000.0001) // =======================================================
(PID.TID 0000.0001) Model domain too big to print to terminal - skipping I/O
(PID.TID 0000.0001) // =======================================================
(PID.TID 0000.0001) // Field Model R_low (ini_masks_etc) tile     85 at iteration          1
(PID.TID 0000.0001) // CMIN =         -5.038000000000000E+03
(PID.TID 0000.0001) // CMAX =         -2.200000000000000E+02
(PID.TID 0000.0001) // CINT =          0.000000000000000E+00
(PID.TID 0000.0001) // SYMBOLS (CMIN->CMAX): -abcdefghijklmnopqrstuvwxyz+
(PID.TID 0000.0001) //                  0.0: .
(PID.TID 0000.0001) // RANGE I (Lo:Hi:Step):( 671: 682:   1)
(PID.TID 0000.0001) // RANGE J (Lo:Hi:Step):(   6:  -1:  -1)
(PID.TID 0000.0001) // RANGE K (Lo:Hi:Step):(   1:   1:   1)
(PID.TID 0000.0001) // =======================================================
(PID.TID 0000.0001) Model domain too big to print to terminal - skipping I/O
(PID.TID 0000.0001) // =======================================================
(PID.TID 0000.0001) // Field Model R_low (ini_masks_etc) tile     86 at iteration          1
(PID.TID 0000.0001) // CMIN =         -3.994000000000000E+03
(PID.TID 0000.0001) // CMAX =         -1.030000000000000E+02
(PID.TID 0000.0001) // CINT =          0.000000000000000E+00
(PID.TID 0000.0001) // SYMBOLS (CMIN->CMAX): -abcdefghijklmnopqrstuvwxyz+
(PID.TID 0000.0001) //                  0.0: .
(PID.TID 0000.0001) // RANGE I (Lo:Hi:Step):( 679: 690:   1)
(PID.TID 0000.0001) // RANGE J (Lo:Hi:Step):(   6:  -1:  -1)
(PID.TID 0000.0001) // RANGE K (Lo:Hi:Step):(   1:   1:   1)
(PID.TID 0000.0001) // =======================================================
(PID.TID 0000.0001) Model domain too big to print to terminal - skipping I/O
(PID.TID 0000.0001) // =======================================================
(PID.TID 0000.0001) // Field Model R_low (ini_masks_etc) tile     87 at iteration          1
(PID.TID 0000.0001) // CMIN =         -3.934000000000000E+03
(PID.TID 0000.0001) // CMAX =         -5.000000000000000E+01
(PID.TID 0000.0001) // CINT =          0.000000000000000E+00
(PID.TID 0000.0001) // SYMBOLS (CMIN->CMAX): -abcdefghijklmnopqrstuvwxyz+
(PID.TID 0000.0001) //                  0.0: .
(PID.TID 0000.0001) // RANGE I (Lo:Hi:Step):( 687: 698:   1)
(PID.TID 0000.0001) // RANGE J (Lo:Hi:Step):(   6:  -1:  -1)
(PID.TID 0000.0001) // RANGE K (Lo:Hi:Step):(   1:   1:   1)
(PID.TID 0000.0001) // =======================================================
(PID.TID 0000.0001) Model domain too big to print to terminal - skipping I/O
(PID.TID 0000.0001) // =======================================================
(PID.TID 0000.0001) // Field Model R_low (ini_masks_etc) tile     88 at iteration          1
(PID.TID 0000.0001) // CMIN =         -5.200000000000000E+03
(PID.TID 0000.0001) // CMAX =         -5.000000000000000E+01
(PID.TID 0000.0001) // CINT =          0.000000000000000E+00
(PID.TID 0000.0001) // SYMBOLS (CMIN->CMAX): -abcdefghijklmnopqrstuvwxyz+
(PID.TID 0000.0001) //                  0.0: .
(PID.TID 0000.0001) // RANGE I (Lo:Hi:Step):( 695: 706:   1)
(PID.TID 0000.0001) // RANGE J (Lo:Hi:Step):(   6:  -1:  -1)
(PID.TID 0000.0001) // RANGE K (Lo:Hi:Step):(   1:   1:   1)
(PID.TID 0000.0001) // =======================================================
(PID.TID 0000.0001) Model domain too big to print to terminal - skipping I/O
(PID.TID 0000.0001) // =======================================================
(PID.TID 0000.0001) // Field Model R_low (ini_masks_etc) tile     89 at iteration          1
(PID.TID 0000.0001) // CMIN =         -4.991000000000000E+03
(PID.TID 0000.0001) // CMAX =         -8.674203585752386E+01
(PID.TID 0000.0001) // CINT =          0.000000000000000E+00
(PID.TID 0000.0001) // SYMBOLS (CMIN->CMAX): -abcdefghijklmnopqrstuvwxyz+
(PID.TID 0000.0001) //                  0.0: .
(PID.TID 0000.0001) // RANGE I (Lo:Hi:Step):( 703: 714:   1)
(PID.TID 0000.0001) // RANGE J (Lo:Hi:Step):(   6:  -1:  -1)
(PID.TID 0000.0001) // RANGE K (Lo:Hi:Step):(   1:   1:   1)
(PID.TID 0000.0001) // =======================================================
(PID.TID 0000.0001) Model domain too big to print to terminal - skipping I/O
(PID.TID 0000.0001) // =======================================================
(PID.TID 0000.0001) // Field Model R_low (ini_masks_etc) tile     90 at iteration          1
(PID.TID 0000.0001) // CMIN =         -3.994000000000000E+03
(PID.TID 0000.0001) // CMAX =         -5.000000000000000E+01
(PID.TID 0000.0001) // CINT =          0.000000000000000E+00
(PID.TID 0000.0001) // SYMBOLS (CMIN->CMAX): -abcdefghijklmnopqrstuvwxyz+
(PID.TID 0000.0001) //                  0.0: .
(PID.TID 0000.0001) // RANGE I (Lo:Hi:Step):( 711: 722:   1)
(PID.TID 0000.0001) // RANGE J (Lo:Hi:Step):(   6:  -1:  -1)
(PID.TID 0000.0001) // RANGE K (Lo:Hi:Step):(   1:   1:   1)
(PID.TID 0000.0001) // =======================================================
(PID.TID 0000.0001) Model domain too big to print to terminal - skipping I/O
(PID.TID 0000.0001) // =======================================================
(PID.TID 0000.0001) // Field Model R_low (ini_masks_etc) tile     91 at iteration          1
(PID.TID 0000.0001) // CMIN =         -3.934000000000000E+03
(PID.TID 0000.0001) // CMAX =         -5.000000000000000E+01
(PID.TID 0000.0001) // CINT =          0.000000000000000E+00
(PID.TID 0000.0001) // SYMBOLS (CMIN->CMAX): -abcdefghijklmnopqrstuvwxyz+
(PID.TID 0000.0001) //                  0.0: .
(PID.TID 0000.0001) // RANGE I (Lo:Hi:Step):( 719: 730:   1)
(PID.TID 0000.0001) // RANGE J (Lo:Hi:Step):(   6:  -1:  -1)
(PID.TID 0000.0001) // RANGE K (Lo:Hi:Step):(   1:   1:   1)
(PID.TID 0000.0001) // =======================================================
(PID.TID 0000.0001) Model domain too big to print to terminal - skipping I/O
(PID.TID 0000.0001) // =======================================================
(PID.TID 0000.0001) // Field Model R_low (ini_masks_etc) tile     92 at iteration          1
(PID.TID 0000.0001) // CMIN =         -5.200000000000000E+03
(PID.TID 0000.0001) // CMAX =         -5.000000000000000E+01
(PID.TID 0000.0001) // CINT =          0.000000000000000E+00
(PID.TID 0000.0001) // SYMBOLS (CMIN->CMAX): -abcdefghijklmnopqrstuvwxyz+
(PID.TID 0000.0001) //                  0.0: .
(PID.TID 0000.0001) // RANGE I (Lo:Hi:Step):( 727: 738:   1)
(PID.TID 0000.0001) // RANGE J (Lo:Hi:Step):(   6:  -1:  -1)
(PID.TID 0000.0001) // RANGE K (Lo:Hi:Step):(   1:   1:   1)
(PID.TID 0000.0001) // =======================================================
(PID.TID 0000.0001) Model domain too big to print to terminal - skipping I/O
(PID.TID 0000.0001) // =======================================================
(PID.TID 0000.0001) // Field Model R_low (ini_masks_etc) tile     93 at iteration          1
(PID.TID 0000.0001) // CMIN =         -5.200000000000000E+03
(PID.TID 0000.0001) // CMAX =         -8.674203585752386E+01
(PID.TID 0000.0001) // CINT =          0.000000000000000E+00
(PID.TID 0000.0001) // SYMBOLS (CMIN->CMAX): -abcdefghijklmnopqrstuvwxyz+
(PID.TID 0000.0001) //                  0.0: .
(PID.TID 0000.0001) // RANGE I (Lo:Hi:Step):( 735: 746:   1)
(PID.TID 0000.0001) // RANGE J (Lo:Hi:Step):(   6:  -1:  -1)
(PID.TID 0000.0001) // RANGE K (Lo:Hi:Step):(   1:   1:   1)
(PID.TID 0000.0001) // =======================================================
(PID.TID 0000.0001) Model domain too big to print to terminal - skipping I/O
(PID.TID 0000.0001) // =======================================================
(PID.TID 0000.0001) // Field Model R_low (ini_masks_etc) tile     94 at iteration          1
(PID.TID 0000.0001) // CMIN =         -5.173000000000000E+03
(PID.TID 0000.0001) // CMAX =         -5.000000000000000E+01
(PID.TID 0000.0001) // CINT =          0.000000000000000E+00
(PID.TID 0000.0001) // SYMBOLS (CMIN->CMAX): -abcdefghijklmnopqrstuvwxyz+
(PID.TID 0000.0001) //                  0.0: .
(PID.TID 0000.0001) // RANGE I (Lo:Hi:Step):( 743: 754:   1)
(PID.TID 0000.0001) // RANGE J (Lo:Hi:Step):(   6:  -1:  -1)
(PID.TID 0000.0001) // RANGE K (Lo:Hi:Step):(   1:   1:   1)
(PID.TID 0000.0001) // =======================================================
(PID.TID 0000.0001) Model domain too big to print to terminal - skipping I/O
(PID.TID 0000.0001) // =======================================================
(PID.TID 0000.0001) // Field Model R_low (ini_masks_etc) tile     95 at iteration          1
(PID.TID 0000.0001) // CMIN =         -2.897000000000000E+03
(PID.TID 0000.0001) // CMAX =         -5.000000000000000E+01
(PID.TID 0000.0001) // CINT =          0.000000000000000E+00
(PID.TID 0000.0001) // SYMBOLS (CMIN->CMAX): -abcdefghijklmnopqrstuvwxyz+
(PID.TID 0000.0001) //                  0.0: .
(PID.TID 0000.0001) // RANGE I (Lo:Hi:Step):( 751: 762:   1)
(PID.TID 0000.0001) // RANGE J (Lo:Hi:Step):(   6:  -1:  -1)
(PID.TID 0000.0001) // RANGE K (Lo:Hi:Step):(   1:   1:   1)
(PID.TID 0000.0001) // =======================================================
(PID.TID 0000.0001) Model domain too big to print to terminal - skipping I/O
(PID.TID 0000.0001) // =======================================================
(PID.TID 0000.0001) // Field Model R_low (ini_masks_etc) tile     96 at iteration          1
(PID.TID 0000.0001) // CMIN =         -5.200000000000000E+03
(PID.TID 0000.0001) // CMAX =         -5.000000000000000E+01
(PID.TID 0000.0001) // CINT =          0.000000000000000E+00
(PID.TID 0000.0001) // SYMBOLS (CMIN->CMAX): -abcdefghijklmnopqrstuvwxyz+
(PID.TID 0000.0001) //                  0.0: .
(PID.TID 0000.0001) // RANGE I (Lo:Hi:Step):( 759: 770:   1)
(PID.TID 0000.0001) // RANGE J (Lo:Hi:Step):(   6:  -1:  -1)
(PID.TID 0000.0001) // RANGE K (Lo:Hi:Step):(   1:   1:   1)
(PID.TID 0000.0001) // =======================================================
(PID.TID 0000.0001) Model domain too big to print to terminal - skipping I/O
(PID.TID 0000.0001) // =======================================================
(PID.TID 0000.0001) // Field Model R_low (ini_masks_etc) tile     97 at iteration          1
(PID.TID 0000.0001) // CMIN =         -5.200000000000000E+03
(PID.TID 0000.0001) // CMAX =         -8.713677160987851E+01
(PID.TID 0000.0001) // CINT =          0.000000000000000E+00
(PID.TID 0000.0001) // SYMBOLS (CMIN->CMAX): -abcdefghijklmnopqrstuvwxyz+
(PID.TID 0000.0001) //                  0.0: .
(PID.TID 0000.0001) // RANGE I (Lo:Hi:Step):( 767: 778:   1)
(PID.TID 0000.0001) // RANGE J (Lo:Hi:Step):(   6:  -1:  -1)
(PID.TID 0000.0001) // RANGE K (Lo:Hi:Step):(   1:   1:   1)
(PID.TID 0000.0001) // =======================================================
(PID.TID 0000.0001) Model domain too big to print to terminal - skipping I/O
(PID.TID 0000.0001) // =======================================================
(PID.TID 0000.0001) // Field Model R_low (ini_masks_etc) tile     98 at iteration          1
(PID.TID 0000.0001) // CMIN =         -5.200000000000000E+03
(PID.TID 0000.0001) // CMAX =         -3.253607946036485E+02
(PID.TID 0000.0001) // CINT =          0.000000000000000E+00
(PID.TID 0000.0001) // SYMBOLS (CMIN->CMAX): -abcdefghijklmnopqrstuvwxyz+
(PID.TID 0000.0001) //                  0.0: .
(PID.TID 0000.0001) // RANGE I (Lo:Hi:Step):( 775: 786:   1)
(PID.TID 0000.0001) // RANGE J (Lo:Hi:Step):(   6:  -1:  -1)
(PID.TID 0000.0001) // RANGE K (Lo:Hi:Step):(   1:   1:   1)
(PID.TID 0000.0001) // =======================================================
(PID.TID 0000.0001) Model domain too big to print to terminal - skipping I/O
(PID.TID 0000.0001) // =======================================================
(PID.TID 0000.0001) // Field Model R_low (ini_masks_etc) tile     99 at iteration          1
(PID.TID 0000.0001) // CMIN =         -4.881000000000000E+03
(PID.TID 0000.0001) // CMAX =         -5.000000000000000E+01
(PID.TID 0000.0001) // CINT =          0.000000000000000E+00
(PID.TID 0000.0001) // SYMBOLS (CMIN->CMAX): -abcdefghijklmnopqrstuvwxyz+
(PID.TID 0000.0001) //                  0.0: .
(PID.TID 0000.0001) // RANGE I (Lo:Hi:Step):( 783: 794:   1)
(PID.TID 0000.0001) // RANGE J (Lo:Hi:Step):(   6:  -1:  -1)
(PID.TID 0000.0001) // RANGE K (Lo:Hi:Step):(   1:   1:   1)
(PID.TID 0000.0001) // =======================================================
(PID.TID 0000.0001) Model domain too big to print to terminal - skipping I/O
(PID.TID 0000.0001) // =======================================================
(PID.TID 0000.0001) // Field Model R_low (ini_masks_etc) tile    100 at iteration          1
(PID.TID 0000.0001) // CMIN =         -5.200000000000000E+03
(PID.TID 0000.0001) // CMAX =         -5.000000000000000E+01
(PID.TID 0000.0001) // CINT =          0.000000000000000E+00
(PID.TID 0000.0001) // SYMBOLS (CMIN->CMAX): -abcdefghijklmnopqrstuvwxyz+
(PID.TID 0000.0001) //                  0.0: .
(PID.TID 0000.0001) // RANGE I (Lo:Hi:Step):( 791: 802:   1)
(PID.TID 0000.0001) // RANGE J (Lo:Hi:Step):(   6:  -1:  -1)
(PID.TID 0000.0001) // RANGE K (Lo:Hi:Step):(   1:   1:   1)
(PID.TID 0000.0001) // =======================================================
(PID.TID 0000.0001) Model domain too big to print to terminal - skipping I/O
(PID.TID 0000.0001) // =======================================================
(PID.TID 0000.0001) // Field Model R_low (ini_masks_etc) tile    101 at iteration          1
(PID.TID 0000.0001) // CMIN =         -5.200000000000000E+03
(PID.TID 0000.0001) // CMAX =         -1.660000000000000E+02
(PID.TID 0000.0001) // CINT =          0.000000000000000E+00
(PID.TID 0000.0001) // SYMBOLS (CMIN->CMAX): -abcdefghijklmnopqrstuvwxyz+
(PID.TID 0000.0001) //                  0.0: .
(PID.TID 0000.0001) // RANGE I (Lo:Hi:Step):( 799: 810:   1)
(PID.TID 0000.0001) // RANGE J (Lo:Hi:Step):(   6:  -1:  -1)
(PID.TID 0000.0001) // RANGE K (Lo:Hi:Step):(   1:   1:   1)
(PID.TID 0000.0001) // =======================================================
(PID.TID 0000.0001) Model domain too big to print to terminal - skipping I/O
(PID.TID 0000.0001) // =======================================================
(PID.TID 0000.0001) // Field Model R_low (ini_masks_etc) tile    102 at iteration          1
(PID.TID 0000.0001) // CMIN =         -5.200000000000000E+03
(PID.TID 0000.0001) // CMAX =         -5.212463340981631E+02
(PID.TID 0000.0001) // CINT =          0.000000000000000E+00
(PID.TID 0000.0001) // SYMBOLS (CMIN->CMAX): -abcdefghijklmnopqrstuvwxyz+
(PID.TID 0000.0001) //                  0.0: .
(PID.TID 0000.0001) // RANGE I (Lo:Hi:Step):( 807: 818:   1)
(PID.TID 0000.0001) // RANGE J (Lo:Hi:Step):(   6:  -1:  -1)
(PID.TID 0000.0001) // RANGE K (Lo:Hi:Step):(   1:   1:   1)
(PID.TID 0000.0001) // =======================================================
(PID.TID 0000.0001) Model domain too big to print to terminal - skipping I/O
(PID.TID 0000.0001) // =======================================================
(PID.TID 0000.0001) // Field Model R_low (ini_masks_etc) tile    103 at iteration          1
(PID.TID 0000.0001) // CMIN =         -4.881000000000000E+03
(PID.TID 0000.0001) // CMAX =         -5.000000000000000E+01
(PID.TID 0000.0001) // CINT =          0.000000000000000E+00
(PID.TID 0000.0001) // SYMBOLS (CMIN->CMAX): -abcdefghijklmnopqrstuvwxyz+
(PID.TID 0000.0001) //                  0.0: .
(PID.TID 0000.0001) // RANGE I (Lo:Hi:Step):( 815: 826:   1)
(PID.TID 0000.0001) // RANGE J (Lo:Hi:Step):(   6:  -1:  -1)
(PID.TID 0000.0001) // RANGE K (Lo:Hi:Step):(   1:   1:   1)
(PID.TID 0000.0001) // =======================================================
(PID.TID 0000.0001) Model domain too big to print to terminal - skipping I/O
(PID.TID 0000.0001) // =======================================================
(PID.TID 0000.0001) // Field Model R_low (ini_masks_etc) tile    104 at iteration          1
(PID.TID 0000.0001) // CMIN =         -5.200000000000000E+03
(PID.TID 0000.0001) // CMAX =         -5.000000000000000E+01
(PID.TID 0000.0001) // CINT =          0.000000000000000E+00
(PID.TID 0000.0001) // SYMBOLS (CMIN->CMAX): -abcdefghijklmnopqrstuvwxyz+
(PID.TID 0000.0001) //                  0.0: .
(PID.TID 0000.0001) // RANGE I (Lo:Hi:Step):( 823: 834:   1)
(PID.TID 0000.0001) // RANGE J (Lo:Hi:Step):(   6:  -1:  -1)
(PID.TID 0000.0001) // RANGE K (Lo:Hi:Step):(   1:   1:   1)
(PID.TID 0000.0001) // =======================================================
(PID.TID 0000.0001) Model domain too big to print to terminal - skipping I/O
(PID.TID 0000.0001) // =======================================================
(PID.TID 0000.0001) // Field Model R_low (ini_masks_etc) tile    105 at iteration          1
(PID.TID 0000.0001) // CMIN =         -5.200000000000000E+03
(PID.TID 0000.0001) // CMAX =         -1.263000000000000E+03
(PID.TID 0000.0001) // CINT =          0.000000000000000E+00
(PID.TID 0000.0001) // SYMBOLS (CMIN->CMAX): -abcdefghijklmnopqrstuvwxyz+
(PID.TID 0000.0001) //                  0.0: .
(PID.TID 0000.0001) // RANGE I (Lo:Hi:Step):( 831: 842:   1)
(PID.TID 0000.0001) // RANGE J (Lo:Hi:Step):(   6:  -1:  -1)
(PID.TID 0000.0001) // RANGE K (Lo:Hi:Step):(   1:   1:   1)
(PID.TID 0000.0001) // =======================================================
(PID.TID 0000.0001) Model domain too big to print to terminal - skipping I/O
(PID.TID 0000.0001) // =======================================================
(PID.TID 0000.0001) // Field Model R_low (ini_masks_etc) tile    106 at iteration          1
(PID.TID 0000.0001) // CMIN =         -5.200000000000000E+03
(PID.TID 0000.0001) // CMAX =         -1.800000000000000E+03
(PID.TID 0000.0001) // CINT =          0.000000000000000E+00
(PID.TID 0000.0001) // SYMBOLS (CMIN->CMAX): -abcdefghijklmnopqrstuvwxyz+
(PID.TID 0000.0001) //                  0.0: .
(PID.TID 0000.0001) // RANGE I (Lo:Hi:Step):( 839: 850:   1)
(PID.TID 0000.0001) // RANGE J (Lo:Hi:Step):(   6:  -1:  -1)
(PID.TID 0000.0001) // RANGE K (Lo:Hi:Step):(   1:   1:   1)
(PID.TID 0000.0001) // =======================================================
(PID.TID 0000.0001) Model domain too big to print to terminal - skipping I/O
(PID.TID 0000.0001) // =======================================================
(PID.TID 0000.0001) // Field Model R_low (ini_masks_etc) tile    107 at iteration          1
(PID.TID 0000.0001) // CMIN =         -5.019000000000000E+03
(PID.TID 0000.0001) // CMAX =         -5.000000000000000E+01
(PID.TID 0000.0001) // CINT =          0.000000000000000E+00
(PID.TID 0000.0001) // SYMBOLS (CMIN->CMAX): -abcdefghijklmnopqrstuvwxyz+
(PID.TID 0000.0001) //                  0.0: .
(PID.TID 0000.0001) // RANGE I (Lo:Hi:Step):( 847: 858:   1)
(PID.TID 0000.0001) // RANGE J (Lo:Hi:Step):(   6:  -1:  -1)
(PID.TID 0000.0001) // RANGE K (Lo:Hi:Step):(   1:   1:   1)
(PID.TID 0000.0001) // =======================================================
(PID.TID 0000.0001) Model domain too big to print to terminal - skipping I/O
(PID.TID 0000.0001) // =======================================================
(PID.TID 0000.0001) // Field Model R_low (ini_masks_etc) tile    108 at iteration          1
(PID.TID 0000.0001) // CMIN =         -4.831000000000000E+03
(PID.TID 0000.0001) // CMAX =         -5.000000000000000E+01
(PID.TID 0000.0001) // CINT =          0.000000000000000E+00
(PID.TID 0000.0001) // SYMBOLS (CMIN->CMAX): -abcdefghijklmnopqrstuvwxyz+
(PID.TID 0000.0001) //                  0.0: .
(PID.TID 0000.0001) // RANGE I (Lo:Hi:Step):( 855: 866:   1)
(PID.TID 0000.0001) // RANGE J (Lo:Hi:Step):(   6:  -1:  -1)
(PID.TID 0000.0001) // RANGE K (Lo:Hi:Step):(   1:   1:   1)
(PID.TID 0000.0001) // =======================================================
(PID.TID 0000.0001) Model domain too big to print to terminal - skipping I/O
(PID.TID 0000.0001) // =======================================================
(PID.TID 0000.0001) // Field Model R_low (ini_masks_etc) tile    109 at iteration          1
(PID.TID 0000.0001) // CMIN =         -5.200000000000000E+03
(PID.TID 0000.0001) // CMAX =         -3.532000000000000E+03
(PID.TID 0000.0001) // CINT =          0.000000000000000E+00
(PID.TID 0000.0001) // SYMBOLS (CMIN->CMAX): -abcdefghijklmnopqrstuvwxyz+
(PID.TID 0000.0001) //                  0.0: .
(PID.TID 0000.0001) // RANGE I (Lo:Hi:Step):( 863: 874:   1)
(PID.TID 0000.0001) // RANGE J (Lo:Hi:Step):(   6:  -1:  -1)
(PID.TID 0000.0001) // RANGE K (Lo:Hi:Step):(   1:   1:   1)
(PID.TID 0000.0001) // =======================================================
(PID.TID 0000.0001) Model domain too big to print to terminal - skipping I/O
(PID.TID 0000.0001) // =======================================================
(PID.TID 0000.0001) // Field Model R_low (ini_masks_etc) tile    110 at iteration          1
(PID.TID 0000.0001) // CMIN =         -5.200000000000000E+03
(PID.TID 0000.0001) // CMAX =         -3.060000000000000E+03
(PID.TID 0000.0001) // CINT =          0.000000000000000E+00
(PID.TID 0000.0001) // SYMBOLS (CMIN->CMAX): -abcdefghijklmnopqrstuvwxyz+
(PID.TID 0000.0001) //                  0.0: .
(PID.TID 0000.0001) // RANGE I (Lo:Hi:Step):( 871: 882:   1)
(PID.TID 0000.0001) // RANGE J (Lo:Hi:Step):(   6:  -1:  -1)
(PID.TID 0000.0001) // RANGE K (Lo:Hi:Step):(   1:   1:   1)
(PID.TID 0000.0001) // =======================================================
(PID.TID 0000.0001) Model domain too big to print to terminal - skipping I/O
(PID.TID 0000.0001) // =======================================================
(PID.TID 0000.0001) // Field Model R_low (ini_masks_etc) tile    111 at iteration          1
(PID.TID 0000.0001) // CMIN =         -5.200000000000000E+03
(PID.TID 0000.0001) // CMAX =         -1.496000000000000E+03
(PID.TID 0000.0001) // CINT =          0.000000000000000E+00
(PID.TID 0000.0001) // SYMBOLS (CMIN->CMAX): -abcdefghijklmnopqrstuvwxyz+
(PID.TID 0000.0001) //                  0.0: .
(PID.TID 0000.0001) // RANGE I (Lo:Hi:Step):( 879: 890:   1)
(PID.TID 0000.0001) // RANGE J (Lo:Hi:Step):(   6:  -1:  -1)
(PID.TID 0000.0001) // RANGE K (Lo:Hi:Step):(   1:   1:   1)
(PID.TID 0000.0001) // =======================================================
(PID.TID 0000.0001) Model domain too big to print to terminal - skipping I/O
(PID.TID 0000.0001) // =======================================================
(PID.TID 0000.0001) // Field Model R_low (ini_masks_etc) tile    112 at iteration          1
(PID.TID 0000.0001) // CMIN =         -5.200000000000000E+03
(PID.TID 0000.0001) // CMAX =         -4.970000000000000E+02
(PID.TID 0000.0001) // CINT =          0.000000000000000E+00
(PID.TID 0000.0001) // SYMBOLS (CMIN->CMAX): -abcdefghijklmnopqrstuvwxyz+
(PID.TID 0000.0001) //                  0.0: .
(PID.TID 0000.0001) // RANGE I (Lo:Hi:Step):( 887: 898:   1)
(PID.TID 0000.0001) // RANGE J (Lo:Hi:Step):(   6:  -1:  -1)
(PID.TID 0000.0001) // RANGE K (Lo:Hi:Step):(   1:   1:   1)
(PID.TID 0000.0001) // =======================================================
(PID.TID 0000.0001) Model domain too big to print to terminal - skipping I/O
(PID.TID 0000.0001) // =======================================================
(PID.TID 0000.0001) // Field Model R_low (ini_masks_etc) tile    113 at iteration          1
(PID.TID 0000.0001) // CMIN =         -5.200000000000000E+03
(PID.TID 0000.0001) // CMAX =         -3.532000000000000E+03
(PID.TID 0000.0001) // CINT =          0.000000000000000E+00
(PID.TID 0000.0001) // SYMBOLS (CMIN->CMAX): -abcdefghijklmnopqrstuvwxyz+
(PID.TID 0000.0001) //                  0.0: .
(PID.TID 0000.0001) // RANGE I (Lo:Hi:Step):( 895: 906:   1)
(PID.TID 0000.0001) // RANGE J (Lo:Hi:Step):(   6:  -1:  -1)
(PID.TID 0000.0001) // RANGE K (Lo:Hi:Step):(   1:   1:   1)
(PID.TID 0000.0001) // =======================================================
(PID.TID 0000.0001) Model domain too big to print to terminal - skipping I/O
(PID.TID 0000.0001) // =======================================================
(PID.TID 0000.0001) // Field Model R_low (ini_masks_etc) tile    114 at iteration          1
(PID.TID 0000.0001) // CMIN =         -5.200000000000000E+03
(PID.TID 0000.0001) // CMAX =         -3.532000000000000E+03
(PID.TID 0000.0001) // CINT =          0.000000000000000E+00
(PID.TID 0000.0001) // SYMBOLS (CMIN->CMAX): -abcdefghijklmnopqrstuvwxyz+
(PID.TID 0000.0001) //                  0.0: .
(PID.TID 0000.0001) // RANGE I (Lo:Hi:Step):( 903: 914:   1)
(PID.TID 0000.0001) // RANGE J (Lo:Hi:Step):(   6:  -1:  -1)
(PID.TID 0000.0001) // RANGE K (Lo:Hi:Step):(   1:   1:   1)
(PID.TID 0000.0001) // =======================================================
(PID.TID 0000.0001) Model domain too big to print to terminal - skipping I/O
(PID.TID 0000.0001) // =======================================================
(PID.TID 0000.0001) // Field Model R_low (ini_masks_etc) tile    115 at iteration          1
(PID.TID 0000.0001) // CMIN =         -5.200000000000000E+03
(PID.TID 0000.0001) // CMAX =         -2.001000000000000E+03
(PID.TID 0000.0001) // CINT =          0.000000000000000E+00
(PID.TID 0000.0001) // SYMBOLS (CMIN->CMAX): -abcdefghijklmnopqrstuvwxyz+
(PID.TID 0000.0001) //                  0.0: .
(PID.TID 0000.0001) // RANGE I (Lo:Hi:Step):( 911: 922:   1)
(PID.TID 0000.0001) // RANGE J (Lo:Hi:Step):(   6:  -1:  -1)
(PID.TID 0000.0001) // RANGE K (Lo:Hi:Step):(   1:   1:   1)
(PID.TID 0000.0001) // =======================================================
(PID.TID 0000.0001) Model domain too big to print to terminal - skipping I/O
(PID.TID 0000.0001) // =======================================================
(PID.TID 0000.0001) // Field Model R_low (ini_masks_etc) tile    116 at iteration          1
(PID.TID 0000.0001) // CMIN =         -5.200000000000000E+03
(PID.TID 0000.0001) // CMAX =         -4.970000000000000E+02
(PID.TID 0000.0001) // CINT =          0.000000000000000E+00
(PID.TID 0000.0001) // SYMBOLS (CMIN->CMAX): -abcdefghijklmnopqrstuvwxyz+
(PID.TID 0000.0001) //                  0.0: .
(PID.TID 0000.0001) // RANGE I (Lo:Hi:Step):( 919: 930:   1)
(PID.TID 0000.0001) // RANGE J (Lo:Hi:Step):(   6:  -1:  -1)
(PID.TID 0000.0001) // RANGE K (Lo:Hi:Step):(   1:   1:   1)
(PID.TID 0000.0001) // =======================================================
(PID.TID 0000.0001) Model domain too big to print to terminal - skipping I/O
(PID.TID 0000.0001) // =======================================================
(PID.TID 0000.0001) // Field Model R_low (ini_masks_etc) tile    117 at iteration          1
(PID.TID 0000.0001) // CMIN =         -5.200000000000000E+03
(PID.TID 0000.0001) // CMAX =         -4.090000000000000E+03
(PID.TID 0000.0001) // CINT =          0.000000000000000E+00
(PID.TID 0000.0001) // SYMBOLS (CMIN->CMAX): -abcdefghijklmnopqrstuvwxyz+
(PID.TID 0000.0001) //                  0.0: .
(PID.TID 0000.0001) // RANGE I (Lo:Hi:Step):( 927: 938:   1)
(PID.TID 0000.0001) // RANGE J (Lo:Hi:Step):(   6:  -1:  -1)
(PID.TID 0000.0001) // RANGE K (Lo:Hi:Step):(   1:   1:   1)
(PID.TID 0000.0001) // =======================================================
(PID.TID 0000.0001) Model domain too big to print to terminal - skipping I/O
(PID.TID 0000.0001) // =======================================================
(PID.TID 0000.0001) // Field Model R_low (ini_masks_etc) tile    118 at iteration          1
(PID.TID 0000.0001) // CMIN =         -5.200000000000000E+03
(PID.TID 0000.0001) // CMAX =         -4.021000000000000E+03
(PID.TID 0000.0001) // CINT =          0.000000000000000E+00
(PID.TID 0000.0001) // SYMBOLS (CMIN->CMAX): -abcdefghijklmnopqrstuvwxyz+
(PID.TID 0000.0001) //                  0.0: .
(PID.TID 0000.0001) // RANGE I (Lo:Hi:Step):( 935: 946:   1)
(PID.TID 0000.0001) // RANGE J (Lo:Hi:Step):(   6:  -1:  -1)
(PID.TID 0000.0001) // RANGE K (Lo:Hi:Step):(   1:   1:   1)
(PID.TID 0000.0001) // =======================================================
(PID.TID 0000.0001) Model domain too big to print to terminal - skipping I/O
(PID.TID 0000.0001) // =======================================================
(PID.TID 0000.0001) // Field Model R_low (ini_masks_etc) tile    119 at iteration          1
(PID.TID 0000.0001) // CMIN =         -5.200000000000000E+03
(PID.TID 0000.0001) // CMAX =         -3.976000000000000E+03
(PID.TID 0000.0001) // CINT =          0.000000000000000E+00
(PID.TID 0000.0001) // SYMBOLS (CMIN->CMAX): -abcdefghijklmnopqrstuvwxyz+
(PID.TID 0000.0001) //                  0.0: .
(PID.TID 0000.0001) // RANGE I (Lo:Hi:Step):( 943: 954:   1)
(PID.TID 0000.0001) // RANGE J (Lo:Hi:Step):(   6:  -1:  -1)
(PID.TID 0000.0001) // RANGE K (Lo:Hi:Step):(   1:   1:   1)
(PID.TID 0000.0001) // =======================================================
(PID.TID 0000.0001) Model domain too big to print to terminal - skipping I/O
(PID.TID 0000.0001) // =======================================================
(PID.TID 0000.0001) // Field Model R_low (ini_masks_etc) tile    120 at iteration          1
(PID.TID 0000.0001) // CMIN =         -5.200000000000000E+03
(PID.TID 0000.0001) // CMAX =         -3.006000000000000E+03
(PID.TID 0000.0001) // CINT =          0.000000000000000E+00
(PID.TID 0000.0001) // SYMBOLS (CMIN->CMAX): -abcdefghijklmnopqrstuvwxyz+
(PID.TID 0000.0001) //                  0.0: .
(PID.TID 0000.0001) // RANGE I (Lo:Hi:Step):( 951: 962:   1)
(PID.TID 0000.0001) // RANGE J (Lo:Hi:Step):(   6:  -1:  -1)
(PID.TID 0000.0001) // RANGE K (Lo:Hi:Step):(   1:   1:   1)
(PID.TID 0000.0001) // =======================================================
(PID.TID 0000.0001) Model domain too big to print to terminal - skipping I/O
(PID.TID 0000.0001) // =======================================================
(PID.TID 0000.0001) // Field Model R_low (ini_masks_etc) tile    121 at iteration          1
(PID.TID 0000.0001) // CMIN =         -5.200000000000000E+03
(PID.TID 0000.0001) // CMAX =         -4.412000000000000E+03
(PID.TID 0000.0001) // CINT =          0.000000000000000E+00
(PID.TID 0000.0001) // SYMBOLS (CMIN->CMAX): -abcdefghijklmnopqrstuvwxyz+
(PID.TID 0000.0001) //                  0.0: .
(PID.TID 0000.0001) // RANGE I (Lo:Hi:Step):( 959: 970:   1)
(PID.TID 0000.0001) // RANGE J (Lo:Hi:Step):(   6:  -1:  -1)
(PID.TID 0000.0001) // RANGE K (Lo:Hi:Step):(   1:   1:   1)
(PID.TID 0000.0001) // =======================================================
(PID.TID 0000.0001) Model domain too big to print to terminal - skipping I/O
(PID.TID 0000.0001) // =======================================================
(PID.TID 0000.0001) // Field Model R_low (ini_masks_etc) tile    122 at iteration          1
(PID.TID 0000.0001) // CMIN =         -5.200000000000000E+03
(PID.TID 0000.0001) // CMAX =         -4.021000000000000E+03
(PID.TID 0000.0001) // CINT =          0.000000000000000E+00
(PID.TID 0000.0001) // SYMBOLS (CMIN->CMAX): -abcdefghijklmnopqrstuvwxyz+
(PID.TID 0000.0001) //                  0.0: .
(PID.TID 0000.0001) // RANGE I (Lo:Hi:Step):( 967: 978:   1)
(PID.TID 0000.0001) // RANGE J (Lo:Hi:Step):(   6:  -1:  -1)
(PID.TID 0000.0001) // RANGE K (Lo:Hi:Step):(   1:   1:   1)
(PID.TID 0000.0001) // =======================================================
(PID.TID 0000.0001) Model domain too big to print to terminal - skipping I/O
(PID.TID 0000.0001) // =======================================================
(PID.TID 0000.0001) // Field Model R_low (ini_masks_etc) tile    123 at iteration          1
(PID.TID 0000.0001) // CMIN =         -5.185000000000000E+03
(PID.TID 0000.0001) // CMAX =         -2.476000000000000E+03
(PID.TID 0000.0001) // CINT =          0.000000000000000E+00
(PID.TID 0000.0001) // SYMBOLS (CMIN->CMAX): -abcdefghijklmnopqrstuvwxyz+
(PID.TID 0000.0001) //                  0.0: .
(PID.TID 0000.0001) // RANGE I (Lo:Hi:Step):( 975: 986:   1)
(PID.TID 0000.0001) // RANGE J (Lo:Hi:Step):(   6:  -1:  -1)
(PID.TID 0000.0001) // RANGE K (Lo:Hi:Step):(   1:   1:   1)
(PID.TID 0000.0001) // =======================================================
(PID.TID 0000.0001) Model domain too big to print to terminal - skipping I/O
(PID.TID 0000.0001) // =======================================================
(PID.TID 0000.0001) // Field Model R_low (ini_masks_etc) tile    124 at iteration          1
(PID.TID 0000.0001) // CMIN =         -5.200000000000000E+03
(PID.TID 0000.0001) // CMAX =         -2.476000000000000E+03
(PID.TID 0000.0001) // CINT =          0.000000000000000E+00
(PID.TID 0000.0001) // SYMBOLS (CMIN->CMAX): -abcdefghijklmnopqrstuvwxyz+
(PID.TID 0000.0001) //                  0.0: .
(PID.TID 0000.0001) // RANGE I (Lo:Hi:Step):( 983: 994:   1)
(PID.TID 0000.0001) // RANGE J (Lo:Hi:Step):(   6:  -1:  -1)
(PID.TID 0000.0001) // RANGE K (Lo:Hi:Step):(   1:   1:   1)
(PID.TID 0000.0001) // =======================================================
(PID.TID 0000.0001) Model domain too big to print to terminal - skipping I/O
(PID.TID 0000.0001) // =======================================================
(PID.TID 0000.0001) // Field Model R_low (ini_masks_etc) tile    125 at iteration          1
(PID.TID 0000.0001) // CMIN =         -5.200000000000000E+03
(PID.TID 0000.0001) // CMAX =         -4.393000000000000E+03
(PID.TID 0000.0001) // CINT =          0.000000000000000E+00
(PID.TID 0000.0001) // SYMBOLS (CMIN->CMAX): -abcdefghijklmnopqrstuvwxyz+
(PID.TID 0000.0001) //                  0.0: .
(PID.TID 0000.0001) // RANGE I (Lo:Hi:Step):( 991:1002:   1)
(PID.TID 0000.0001) // RANGE J (Lo:Hi:Step):(   6:  -1:  -1)
(PID.TID 0000.0001) // RANGE K (Lo:Hi:Step):(   1:   1:   1)
(PID.TID 0000.0001) // =======================================================
(PID.TID 0000.0001) Model domain too big to print to terminal - skipping I/O
(PID.TID 0000.0001) // =======================================================
(PID.TID 0000.0001) // Field Model R_low (ini_masks_etc) tile    126 at iteration          1
(PID.TID 0000.0001) // CMIN =         -5.200000000000000E+03
(PID.TID 0000.0001) // CMAX =         -4.400000000000000E+03
(PID.TID 0000.0001) // CINT =          0.000000000000000E+00
(PID.TID 0000.0001) // SYMBOLS (CMIN->CMAX): -abcdefghijklmnopqrstuvwxyz+
(PID.TID 0000.0001) //                  0.0: .
(PID.TID 0000.0001) // RANGE I (Lo:Hi:Step):( 999:1010:   1)
(PID.TID 0000.0001) // RANGE J (Lo:Hi:Step):(   6:  -1:  -1)
(PID.TID 0000.0001) // RANGE K (Lo:Hi:Step):(   1:   1:   1)
(PID.TID 0000.0001) // =======================================================
(PID.TID 0000.0001) Model domain too big to print to terminal - skipping I/O
(PID.TID 0000.0001) // =======================================================
(PID.TID 0000.0001) // Field Model R_low (ini_masks_etc) tile    127 at iteration          1
(PID.TID 0000.0001) // CMIN =         -5.022000000000000E+03
(PID.TID 0000.0001) // CMAX =         -2.476000000000000E+03
(PID.TID 0000.0001) // CINT =          0.000000000000000E+00
(PID.TID 0000.0001) // SYMBOLS (CMIN->CMAX): -abcdefghijklmnopqrstuvwxyz+
(PID.TID 0000.0001) //                  0.0: .
(PID.TID 0000.0001) // RANGE I (Lo:Hi:Step):(1007:1018:   1)
(PID.TID 0000.0001) // RANGE J (Lo:Hi:Step):(   6:  -1:  -1)
(PID.TID 0000.0001) // RANGE K (Lo:Hi:Step):(   1:   1:   1)
(PID.TID 0000.0001) // =======================================================
(PID.TID 0000.0001) Model domain too big to print to terminal - skipping I/O
(PID.TID 0000.0001) // =======================================================
(PID.TID 0000.0001) // Field Model R_low (ini_masks_etc) tile    128 at iteration          1
(PID.TID 0000.0001) // CMIN =         -5.200000000000000E+03
(PID.TID 0000.0001) // CMAX =         -2.476000000000000E+03
(PID.TID 0000.0001) // CINT =          0.000000000000000E+00
(PID.TID 0000.0001) // SYMBOLS (CMIN->CMAX): -abcdefghijklmnopqrstuvwxyz+
(PID.TID 0000.0001) //                  0.0: .
(PID.TID 0000.0001) // RANGE I (Lo:Hi:Step):(1015:1026:   1)
(PID.TID 0000.0001) // RANGE J (Lo:Hi:Step):(   6:  -1:  -1)
(PID.TID 0000.0001) // RANGE K (Lo:Hi:Step):(   1:   1:   1)
(PID.TID 0000.0001) // =======================================================
(PID.TID 0000.0001) Model domain too big to print to terminal - skipping I/O
(PID.TID 0000.0001) // =======================================================
(PID.TID 0000.0001) // Field Model R_low (ini_masks_etc) tile    129 at iteration          1
(PID.TID 0000.0001) // CMIN =         -5.200000000000000E+03
(PID.TID 0000.0001) // CMAX =         -2.981000000000000E+03
(PID.TID 0000.0001) // CINT =          0.000000000000000E+00
(PID.TID 0000.0001) // SYMBOLS (CMIN->CMAX): -abcdefghijklmnopqrstuvwxyz+
(PID.TID 0000.0001) //                  0.0: .
(PID.TID 0000.0001) // RANGE I (Lo:Hi:Step):(1023:1034:   1)
(PID.TID 0000.0001) // RANGE J (Lo:Hi:Step):(   6:  -1:  -1)
(PID.TID 0000.0001) // RANGE K (Lo:Hi:Step):(   1:   1:   1)
(PID.TID 0000.0001) // =======================================================
(PID.TID 0000.0001) Model domain too big to print to terminal - skipping I/O
(PID.TID 0000.0001) // =======================================================
(PID.TID 0000.0001) // Field Model R_low (ini_masks_etc) tile    130 at iteration          1
(PID.TID 0000.0001) // CMIN =         -5.200000000000000E+03
(PID.TID 0000.0001) // CMAX =         -3.959000000000000E+03
(PID.TID 0000.0001) // CINT =          0.000000000000000E+00
(PID.TID 0000.0001) // SYMBOLS (CMIN->CMAX): -abcdefghijklmnopqrstuvwxyz+
(PID.TID 0000.0001) //                  0.0: .
(PID.TID 0000.0001) // RANGE I (Lo:Hi:Step):(1031:1042:   1)
(PID.TID 0000.0001) // RANGE J (Lo:Hi:Step):(   6:  -1:  -1)
(PID.TID 0000.0001) // RANGE K (Lo:Hi:Step):(   1:   1:   1)
(PID.TID 0000.0001) // =======================================================
(PID.TID 0000.0001) Model domain too big to print to terminal - skipping I/O
(PID.TID 0000.0001) // =======================================================
(PID.TID 0000.0001) // Field Model R_low (ini_masks_etc) tile    131 at iteration          1
(PID.TID 0000.0001) // CMIN =         -4.610000000000000E+03
(PID.TID 0000.0001) // CMAX =         -2.976000000000000E+03
(PID.TID 0000.0001) // CINT =          0.000000000000000E+00
(PID.TID 0000.0001) // SYMBOLS (CMIN->CMAX): -abcdefghijklmnopqrstuvwxyz+
(PID.TID 0000.0001) //                  0.0: .
(PID.TID 0000.0001) // RANGE I (Lo:Hi:Step):(1039:1050:   1)
(PID.TID 0000.0001) // RANGE J (Lo:Hi:Step):(   6:  -1:  -1)
(PID.TID 0000.0001) // RANGE K (Lo:Hi:Step):(   1:   1:   1)
(PID.TID 0000.0001) // =======================================================
(PID.TID 0000.0001) Model domain too big to print to terminal - skipping I/O
(PID.TID 0000.0001) // =======================================================
(PID.TID 0000.0001) // Field Model R_low (ini_masks_etc) tile    132 at iteration          1
(PID.TID 0000.0001) // CMIN =         -5.000000000000000E+03
(PID.TID 0000.0001) // CMAX =         -2.976000000000000E+03
(PID.TID 0000.0001) // CINT =          0.000000000000000E+00
(PID.TID 0000.0001) // SYMBOLS (CMIN->CMAX): -abcdefghijklmnopqrstuvwxyz+
(PID.TID 0000.0001) //                  0.0: .
(PID.TID 0000.0001) // RANGE I (Lo:Hi:Step):(1047:1058:   1)
(PID.TID 0000.0001) // RANGE J (Lo:Hi:Step):(   6:  -1:  -1)
(PID.TID 0000.0001) // RANGE K (Lo:Hi:Step):(   1:   1:   1)
(PID.TID 0000.0001) // =======================================================
(PID.TID 0000.0001) Model domain too big to print to terminal - skipping I/O
(PID.TID 0000.0001) // =======================================================
(PID.TID 0000.0001) // Field Model R_low (ini_masks_etc) tile    133 at iteration          1
(PID.TID 0000.0001) // CMIN =         -4.994000000000000E+03
(PID.TID 0000.0001) // CMAX =         -5.000000000000000E+01
(PID.TID 0000.0001) // CINT =          0.000000000000000E+00
(PID.TID 0000.0001) // SYMBOLS (CMIN->CMAX): -abcdefghijklmnopqrstuvwxyz+
(PID.TID 0000.0001) //                  0.0: .
(PID.TID 0000.0001) // RANGE I (Lo:Hi:Step):(1055:1066:   1)
(PID.TID 0000.0001) // RANGE J (Lo:Hi:Step):(   6:  -1:  -1)
(PID.TID 0000.0001) // RANGE K (Lo:Hi:Step):(   1:   1:   1)
(PID.TID 0000.0001) // =======================================================
(PID.TID 0000.0001) Model domain too big to print to terminal - skipping I/O
(PID.TID 0000.0001) // =======================================================
(PID.TID 0000.0001) // Field Model R_low (ini_masks_etc) tile    134 at iteration          1
(PID.TID 0000.0001) // CMIN =         -4.803000000000000E+03
(PID.TID 0000.0001) // CMAX =         -1.530000000000000E+02
(PID.TID 0000.0001) // CINT =          0.000000000000000E+00
(PID.TID 0000.0001) // SYMBOLS (CMIN->CMAX): -abcdefghijklmnopqrstuvwxyz+
(PID.TID 0000.0001) //                  0.0: .
(PID.TID 0000.0001) // RANGE I (Lo:Hi:Step):(1063:1074:   1)
(PID.TID 0000.0001) // RANGE J (Lo:Hi:Step):(   6:  -1:  -1)
(PID.TID 0000.0001) // RANGE K (Lo:Hi:Step):(   1:   1:   1)
(PID.TID 0000.0001) // =======================================================
(PID.TID 0000.0001) Model domain too big to print to terminal - skipping I/O
(PID.TID 0000.0001) // =======================================================
(PID.TID 0000.0001) // Field Model R_low (ini_masks_etc) tile    135 at iteration          1
(PID.TID 0000.0001) // CMIN =         -4.606000000000000E+03
(PID.TID 0000.0001) // CMAX =         -2.920000000000000E+03
(PID.TID 0000.0001) // CINT =          0.000000000000000E+00
(PID.TID 0000.0001) // SYMBOLS (CMIN->CMAX): -abcdefghijklmnopqrstuvwxyz+
(PID.TID 0000.0001) //                  0.0: .
(PID.TID 0000.0001) // RANGE I (Lo:Hi:Step):(1071:1082:   1)
(PID.TID 0000.0001) // RANGE J (Lo:Hi:Step):(   6:  -1:  -1)
(PID.TID 0000.0001) // RANGE K (Lo:Hi:Step):(   1:   1:   1)
(PID.TID 0000.0001) // =======================================================
(PID.TID 0000.0001) Model domain too big to print to terminal - skipping I/O
(PID.TID 0000.0001) // =======================================================
(PID.TID 0000.0001) // Field Model R_low (ini_masks_etc) tile    136 at iteration          1
(PID.TID 0000.0001) // CMIN =         -5.000000000000000E+03
(PID.TID 0000.0001) // CMAX =         -2.920000000000000E+03
(PID.TID 0000.0001) // CINT =          0.000000000000000E+00
(PID.TID 0000.0001) // SYMBOLS (CMIN->CMAX): -abcdefghijklmnopqrstuvwxyz+
(PID.TID 0000.0001) //                  0.0: .
(PID.TID 0000.0001) // RANGE I (Lo:Hi:Step):(1079:1090:   1)
(PID.TID 0000.0001) // RANGE J (Lo:Hi:Step):(   6:  -1:  -1)
(PID.TID 0000.0001) // RANGE K (Lo:Hi:Step):(   1:   1:   1)
(PID.TID 0000.0001) // =======================================================
(PID.TID 0000.0001) Model domain too big to print to terminal - skipping I/O
(PID.TID 0000.0001) // =======================================================
(PID.TID 0000.0001) // Field Model R_low (ini_masks_etc) tile    137 at iteration          1
(PID.TID 0000.0001) // CMIN =         -3.982000000000000E+03
(PID.TID 0000.0001) // CMAX =         -5.000000000000000E+01
(PID.TID 0000.0001) // CINT =          0.000000000000000E+00
(PID.TID 0000.0001) // SYMBOLS (CMIN->CMAX): -abcdefghijklmnopqrstuvwxyz+
(PID.TID 0000.0001) //                  0.0: .
(PID.TID 0000.0001) // RANGE I (Lo:Hi:Step):(1087:1098:   1)
(PID.TID 0000.0001) // RANGE J (Lo:Hi:Step):(   6:  -1:  -1)
(PID.TID 0000.0001) // RANGE K (Lo:Hi:Step):(   1:   1:   1)
(PID.TID 0000.0001) // =======================================================
(PID.TID 0000.0001) Model domain too big to print to terminal - skipping I/O
(PID.TID 0000.0001) // =======================================================
(PID.TID 0000.0001) // Field Model R_low (ini_masks_etc) tile    138 at iteration          1
(PID.TID 0000.0001) // CMIN =         -4.245000000000000E+03
(PID.TID 0000.0001) // CMAX =         -1.200000000000000E+02
(PID.TID 0000.0001) // CINT =          0.000000000000000E+00
(PID.TID 0000.0001) // SYMBOLS (CMIN->CMAX): -abcdefghijklmnopqrstuvwxyz+
(PID.TID 0000.0001) //                  0.0: .
(PID.TID 0000.0001) // RANGE I (Lo:Hi:Step):(1095:1106:   1)
(PID.TID 0000.0001) // RANGE J (Lo:Hi:Step):(   6:  -1:  -1)
(PID.TID 0000.0001) // RANGE K (Lo:Hi:Step):(   1:   1:   1)
(PID.TID 0000.0001) // =======================================================
(PID.TID 0000.0001) Model domain too big to print to terminal - skipping I/O
(PID.TID 0000.0001) // =======================================================
(PID.TID 0000.0001) // Field Model R_low (ini_masks_etc) tile    139 at iteration          1
(PID.TID 0000.0001) // CMIN =         -4.245000000000000E+03
(PID.TID 0000.0001) // CMAX =         -2.920000000000000E+03
(PID.TID 0000.0001) // CINT =          0.000000000000000E+00
(PID.TID 0000.0001) // SYMBOLS (CMIN->CMAX): -abcdefghijklmnopqrstuvwxyz+
(PID.TID 0000.0001) //                  0.0: .
(PID.TID 0000.0001) // RANGE I (Lo:Hi:Step):(1103:1114:   1)
(PID.TID 0000.0001) // RANGE J (Lo:Hi:Step):(   6:  -1:  -1)
(PID.TID 0000.0001) // RANGE K (Lo:Hi:Step):(   1:   1:   1)
(PID.TID 0000.0001) // =======================================================
(PID.TID 0000.0001) Model domain too big to print to terminal - skipping I/O
(PID.TID 0000.0001) // =======================================================
(PID.TID 0000.0001) // Field Model R_low (ini_masks_etc) tile    140 at iteration          1
(PID.TID 0000.0001) // CMIN =         -4.504000000000000E+03
(PID.TID 0000.0001) // CMAX =         -2.920000000000000E+03
(PID.TID 0000.0001) // CINT =          0.000000000000000E+00
(PID.TID 0000.0001) // SYMBOLS (CMIN->CMAX): -abcdefghijklmnopqrstuvwxyz+
(PID.TID 0000.0001) //                  0.0: .
(PID.TID 0000.0001) // RANGE I (Lo:Hi:Step):(1111:1122:   1)
(PID.TID 0000.0001) // RANGE J (Lo:Hi:Step):(   6:  -1:  -1)
(PID.TID 0000.0001) // RANGE K (Lo:Hi:Step):(   1:   1:   1)
(PID.TID 0000.0001) // =======================================================
(PID.TID 0000.0001) Model domain too big to print to terminal - skipping I/O
(PID.TID 0000.0001) // =======================================================
(PID.TID 0000.0001) // Field Model R_low (ini_masks_etc) tile    141 at iteration          1
(PID.TID 0000.0001) // CMIN =         -3.600000000000000E+03
(PID.TID 0000.0001) // CMAX =         -5.000000000000000E+01
(PID.TID 0000.0001) // CINT =          0.000000000000000E+00
(PID.TID 0000.0001) // SYMBOLS (CMIN->CMAX): -abcdefghijklmnopqrstuvwxyz+
(PID.TID 0000.0001) //                  0.0: .
(PID.TID 0000.0001) // RANGE I (Lo:Hi:Step):(1119:1130:   1)
(PID.TID 0000.0001) // RANGE J (Lo:Hi:Step):(   6:  -1:  -1)
(PID.TID 0000.0001) // RANGE K (Lo:Hi:Step):(   1:   1:   1)
(PID.TID 0000.0001) // =======================================================
(PID.TID 0000.0001) Model domain too big to print to terminal - skipping I/O
(PID.TID 0000.0001) // =======================================================
(PID.TID 0000.0001) // Field Model R_low (ini_masks_etc) tile    142 at iteration          1
(PID.TID 0000.0001) // CMIN =         -3.854000000000000E+03
(PID.TID 0000.0001) // CMAX =         -5.000000000000000E+01
(PID.TID 0000.0001) // CINT =          0.000000000000000E+00
(PID.TID 0000.0001) // SYMBOLS (CMIN->CMAX): -abcdefghijklmnopqrstuvwxyz+
(PID.TID 0000.0001) //                  0.0: .
(PID.TID 0000.0001) // RANGE I (Lo:Hi:Step):(1127:1138:   1)
(PID.TID 0000.0001) // RANGE J (Lo:Hi:Step):(   6:  -1:  -1)
(PID.TID 0000.0001) // RANGE K (Lo:Hi:Step):(   1:   1:   1)
(PID.TID 0000.0001) // =======================================================
(PID.TID 0000.0001) Model domain too big to print to terminal - skipping I/O
(PID.TID 0000.0001) // =======================================================
(PID.TID 0000.0001) // Field Model R_low (ini_masks_etc) tile    143 at iteration          1
(PID.TID 0000.0001) // CMIN =         -4.603000000000000E+03
(PID.TID 0000.0001) // CMAX =         -2.300000000000000E+03
(PID.TID 0000.0001) // CINT =          0.000000000000000E+00
(PID.TID 0000.0001) // SYMBOLS (CMIN->CMAX): -abcdefghijklmnopqrstuvwxyz+
(PID.TID 0000.0001) //                  0.0: .
(PID.TID 0000.0001) // RANGE I (Lo:Hi:Step):(1135:1146:   1)
(PID.TID 0000.0001) // RANGE J (Lo:Hi:Step):(   6:  -1:  -1)
(PID.TID 0000.0001) // RANGE K (Lo:Hi:Step):(   1:   1:   1)
(PID.TID 0000.0001) // =======================================================
(PID.TID 0000.0001) Model domain too big to print to terminal - skipping I/O
(PID.TID 0000.0001) // =======================================================
(PID.TID 0000.0001) // Field Model R_low (ini_masks_etc) tile    144 at iteration          1
(PID.TID 0000.0001) // CMIN =         -4.510000000000000E+03
(PID.TID 0000.0001) // CMAX =         -3.012000000000000E+03
(PID.TID 0000.0001) // CINT =          0.000000000000000E+00
(PID.TID 0000.0001) // SYMBOLS (CMIN->CMAX): -abcdefghijklmnopqrstuvwxyz+
(PID.TID 0000.0001) //                  0.0: .
(PID.TID 0000.0001) // RANGE I (Lo:Hi:Step):(1143:1154:   1)
(PID.TID 0000.0001) // RANGE J (Lo:Hi:Step):(   6:  -1:  -1)
(PID.TID 0000.0001) // RANGE K (Lo:Hi:Step):(   1:   1:   1)
(PID.TID 0000.0001) // =======================================================
(PID.TID 0000.0001) Model domain too big to print to terminal - skipping I/O
(PID.TID 0000.0001) // =======================================================
(PID.TID 0000.0001) // Field Model R_low (ini_masks_etc) tile    145 at iteration          1
(PID.TID 0000.0001) // CMIN =         -5.200000000000000E+03
(PID.TID 0000.0001) // CMAX =         -5.000000000000000E+01
(PID.TID 0000.0001) // CINT =          0.000000000000000E+00
(PID.TID 0000.0001) // SYMBOLS (CMIN->CMAX): -abcdefghijklmnopqrstuvwxyz+
(PID.TID 0000.0001) //                  0.0: .
(PID.TID 0000.0001) // RANGE I (Lo:Hi:Step):(1151:1162:   1)
(PID.TID 0000.0001) // RANGE J (Lo:Hi:Step):(   6:  -1:  -1)
(PID.TID 0000.0001) // RANGE K (Lo:Hi:Step):(   1:   1:   1)
(PID.TID 0000.0001) // =======================================================
(PID.TID 0000.0001) Model domain too big to print to terminal - skipping I/O
(PID.TID 0000.0001) // =======================================================
(PID.TID 0000.0001) // Field Model R_low (ini_masks_etc) tile    146 at iteration          1
(PID.TID 0000.0001) // CMIN =         -5.084000000000000E+03
(PID.TID 0000.0001) // CMAX =         -5.000000000000000E+01
(PID.TID 0000.0001) // CINT =          0.000000000000000E+00
(PID.TID 0000.0001) // SYMBOLS (CMIN->CMAX): -abcdefghijklmnopqrstuvwxyz+
(PID.TID 0000.0001) //                  0.0: .
(PID.TID 0000.0001) // RANGE I (Lo:Hi:Step):(1159:1170:   1)
(PID.TID 0000.0001) // RANGE J (Lo:Hi:Step):(   6:  -1:  -1)
(PID.TID 0000.0001) // RANGE K (Lo:Hi:Step):(   1:   1:   1)
(PID.TID 0000.0001) // =======================================================
(PID.TID 0000.0001) Model domain too big to print to terminal - skipping I/O
(PID.TID 0000.0001) // =======================================================
(PID.TID 0000.0001) // Field Model R_low (ini_masks_etc) tile    147 at iteration          1
(PID.TID 0000.0001) // CMIN =         -4.655000000000000E+03
(PID.TID 0000.0001) // CMAX =         -5.000000000000000E+01
(PID.TID 0000.0001) // CINT =          0.000000000000000E+00
(PID.TID 0000.0001) // SYMBOLS (CMIN->CMAX): -abcdefghijklmnopqrstuvwxyz+
(PID.TID 0000.0001) //                  0.0: .
(PID.TID 0000.0001) // RANGE I (Lo:Hi:Step):(1167:1178:   1)
(PID.TID 0000.0001) // RANGE J (Lo:Hi:Step):(   6:  -1:  -1)
(PID.TID 0000.0001) // RANGE K (Lo:Hi:Step):(   1:   1:   1)
(PID.TID 0000.0001) // =======================================================
(PID.TID 0000.0001) Model domain too big to print to terminal - skipping I/O
(PID.TID 0000.0001) // =======================================================
(PID.TID 0000.0001) // Field Model R_low (ini_masks_etc) tile    148 at iteration          1
(PID.TID 0000.0001) // CMIN =         -4.636000000000000E+03
(PID.TID 0000.0001) // CMAX =         -2.739174154816927E+02
(PID.TID 0000.0001) // CINT =          0.000000000000000E+00
(PID.TID 0000.0001) // SYMBOLS (CMIN->CMAX): -abcdefghijklmnopqrstuvwxyz+
(PID.TID 0000.0001) //                  0.0: .
(PID.TID 0000.0001) // RANGE I (Lo:Hi:Step):(1175:1186:   1)
(PID.TID 0000.0001) // RANGE J (Lo:Hi:Step):(   6:  -1:  -1)
(PID.TID 0000.0001) // RANGE K (Lo:Hi:Step):(   1:   1:   1)
(PID.TID 0000.0001) // =======================================================
(PID.TID 0000.0001) Model domain too big to print to terminal - skipping I/O
(PID.TID 0000.0001) // =======================================================
(PID.TID 0000.0001) // Field Model R_low (ini_masks_etc) tile    149 at iteration          1
(PID.TID 0000.0001) // CMIN =         -5.200000000000000E+03
(PID.TID 0000.0001) // CMAX =         -1.400000000000000E+02
(PID.TID 0000.0001) // CINT =          0.000000000000000E+00
(PID.TID 0000.0001) // SYMBOLS (CMIN->CMAX): -abcdefghijklmnopqrstuvwxyz+
(PID.TID 0000.0001) //                  0.0: .
(PID.TID 0000.0001) // RANGE I (Lo:Hi:Step):(1183:1194:   1)
(PID.TID 0000.0001) // RANGE J (Lo:Hi:Step):(   6:  -1:  -1)
(PID.TID 0000.0001) // RANGE K (Lo:Hi:Step):(   1:   1:   1)
(PID.TID 0000.0001) // =======================================================
(PID.TID 0000.0001) Model domain too big to print to terminal - skipping I/O
(PID.TID 0000.0001) // =======================================================
(PID.TID 0000.0001) // Field Model R_low (ini_masks_etc) tile    150 at iteration          1
(PID.TID 0000.0001) // CMIN =         -5.200000000000000E+03
(PID.TID 0000.0001) // CMAX =         -3.283161066234499E+02
(PID.TID 0000.0001) // CINT =          0.000000000000000E+00
(PID.TID 0000.0001) // SYMBOLS (CMIN->CMAX): -abcdefghijklmnopqrstuvwxyz+
(PID.TID 0000.0001) //                  0.0: .
(PID.TID 0000.0001) // RANGE I (Lo:Hi:Step):(1191:1202:   1)
(PID.TID 0000.0001) // RANGE J (Lo:Hi:Step):(   6:  -1:  -1)
(PID.TID 0000.0001) // RANGE K (Lo:Hi:Step):(   1:   1:   1)
(PID.TID 0000.0001) // =======================================================
(PID.TID 0000.0001) Model domain too big to print to terminal - skipping I/O
(PID.TID 0000.0001) // =======================================================
(PID.TID 0000.0001) // Field Model R_low (ini_masks_etc) tile    151 at iteration          1
(PID.TID 0000.0001) // CMIN =         -4.655000000000000E+03
(PID.TID 0000.0001) // CMAX =         -5.000000000000000E+01
(PID.TID 0000.0001) // CINT =          0.000000000000000E+00
(PID.TID 0000.0001) // SYMBOLS (CMIN->CMAX): -abcdefghijklmnopqrstuvwxyz+
(PID.TID 0000.0001) //                  0.0: .
(PID.TID 0000.0001) // RANGE I (Lo:Hi:Step):(1199:1210:   1)
(PID.TID 0000.0001) // RANGE J (Lo:Hi:Step):(   6:  -1:  -1)
(PID.TID 0000.0001) // RANGE K (Lo:Hi:Step):(   1:   1:   1)
(PID.TID 0000.0001) // =======================================================
(PID.TID 0000.0001) Model domain too big to print to terminal - skipping I/O
(PID.TID 0000.0001) // =======================================================
(PID.TID 0000.0001) // Field Model R_low (ini_masks_etc) tile    152 at iteration          1
(PID.TID 0000.0001) // CMIN =         -5.084000000000000E+03
(PID.TID 0000.0001) // CMAX =         -5.000000000000000E+01
(PID.TID 0000.0001) // CINT =          0.000000000000000E+00
(PID.TID 0000.0001) // SYMBOLS (CMIN->CMAX): -abcdefghijklmnopqrstuvwxyz+
(PID.TID 0000.0001) //                  0.0: .
(PID.TID 0000.0001) // RANGE I (Lo:Hi:Step):(1207:1218:   1)
(PID.TID 0000.0001) // RANGE J (Lo:Hi:Step):(   6:  -1:  -1)
(PID.TID 0000.0001) // RANGE K (Lo:Hi:Step):(   1:   1:   1)
(PID.TID 0000.0001) // =======================================================
(PID.TID 0000.0001) Model domain too big to print to terminal - skipping I/O
(PID.TID 0000.0001) // =======================================================
(PID.TID 0000.0001) // Field Model R_low (ini_masks_etc) tile    153 at iteration          1
(PID.TID 0000.0001) // CMIN =         -5.200000000000000E+03
(PID.TID 0000.0001) // CMAX =         -1.400000000000000E+02
(PID.TID 0000.0001) // CINT =          0.000000000000000E+00
(PID.TID 0000.0001) // SYMBOLS (CMIN->CMAX): -abcdefghijklmnopqrstuvwxyz+
(PID.TID 0000.0001) //                  0.0: .
(PID.TID 0000.0001) // RANGE I (Lo:Hi:Step):(1215:1226:   1)
(PID.TID 0000.0001) // RANGE J (Lo:Hi:Step):(   6:  -1:  -1)
(PID.TID 0000.0001) // RANGE K (Lo:Hi:Step):(   1:   1:   1)
(PID.TID 0000.0001) // =======================================================
(PID.TID 0000.0001) Model domain too big to print to terminal - skipping I/O
(PID.TID 0000.0001) // =======================================================
(PID.TID 0000.0001) // Field Model R_low (ini_masks_etc) tile    154 at iteration          1
(PID.TID 0000.0001) // CMIN =         -5.200000000000000E+03
(PID.TID 0000.0001) // CMAX =         -5.000000000000000E+01
(PID.TID 0000.0001) // CINT =          0.000000000000000E+00
(PID.TID 0000.0001) // SYMBOLS (CMIN->CMAX): -abcdefghijklmnopqrstuvwxyz+
(PID.TID 0000.0001) //                  0.0: .
(PID.TID 0000.0001) // RANGE I (Lo:Hi:Step):(1223:1234:   1)
(PID.TID 0000.0001) // RANGE J (Lo:Hi:Step):(   6:  -1:  -1)
(PID.TID 0000.0001) // RANGE K (Lo:Hi:Step):(   1:   1:   1)
(PID.TID 0000.0001) // =======================================================
(PID.TID 0000.0001) Model domain too big to print to terminal - skipping I/O
(PID.TID 0000.0001) // =======================================================
(PID.TID 0000.0001) // Field Model R_low (ini_masks_etc) tile    155 at iteration          1
(PID.TID 0000.0001) // CMIN =         -1.501000000000000E+03
(PID.TID 0000.0001) // CMAX =         -1.501000000000000E+03
(PID.TID 0000.0001) // CINT =          0.000000000000000E+00
(PID.TID 0000.0001) // SYMBOLS (CMIN->CMAX): -abcdefghijklmnopqrstuvwxyz+
(PID.TID 0000.0001) //                  0.0: .
(PID.TID 0000.0001) // RANGE I (Lo:Hi:Step):(1231:1242:   1)
(PID.TID 0000.0001) // RANGE J (Lo:Hi:Step):(   6:  -1:  -1)
(PID.TID 0000.0001) // RANGE K (Lo:Hi:Step):(   1:   1:   1)
(PID.TID 0000.0001) // =======================================================
(PID.TID 0000.0001) Model domain too big to print to terminal - skipping I/O
(PID.TID 0000.0001) // =======================================================
(PID.TID 0000.0001) // Field Model R_low (ini_masks_etc) tile    156 at iteration          1
(PID.TID 0000.0001) // CMIN =         -5.200000000000000E+03
(PID.TID 0000.0001) // CMAX =         -5.000000000000000E+01
(PID.TID 0000.0001) // CINT =          0.000000000000000E+00
(PID.TID 0000.0001) // SYMBOLS (CMIN->CMAX): -abcdefghijklmnopqrstuvwxyz+
(PID.TID 0000.0001) //                  0.0: .
(PID.TID 0000.0001) // RANGE I (Lo:Hi:Step):(1239:1250:   1)
(PID.TID 0000.0001) // RANGE J (Lo:Hi:Step):(   6:  -1:  -1)
(PID.TID 0000.0001) // RANGE K (Lo:Hi:Step):(   1:   1:   1)
(PID.TID 0000.0001) // =======================================================
(PID.TID 0000.0001) Model domain too big to print to terminal - skipping I/O
(PID.TID 0000.0001) // =======================================================
(PID.TID 0000.0001) // Field Model R_low (ini_masks_etc) tile    157 at iteration          1
(PID.TID 0000.0001) // CMIN =         -5.200000000000000E+03
(PID.TID 0000.0001) // CMAX =         -2.979000000000000E+03
(PID.TID 0000.0001) // CINT =          0.000000000000000E+00
(PID.TID 0000.0001) // SYMBOLS (CMIN->CMAX): -abcdefghijklmnopqrstuvwxyz+
(PID.TID 0000.0001) //                  0.0: .
(PID.TID 0000.0001) // RANGE I (Lo:Hi:Step):(1247:1258:   1)
(PID.TID 0000.0001) // RANGE J (Lo:Hi:Step):(   6:  -1:  -1)
(PID.TID 0000.0001) // RANGE K (Lo:Hi:Step):(   1:   1:   1)
(PID.TID 0000.0001) // =======================================================
(PID.TID 0000.0001) Model domain too big to print to terminal - skipping I/O
(PID.TID 0000.0001) // =======================================================
(PID.TID 0000.0001) // Field Model R_low (ini_masks_etc) tile    158 at iteration          1
(PID.TID 0000.0001) // CMIN =         -5.200000000000000E+03
(PID.TID 0000.0001) // CMAX =         -5.000000000000000E+01
(PID.TID 0000.0001) // CINT =          0.000000000000000E+00
(PID.TID 0000.0001) // SYMBOLS (CMIN->CMAX): -abcdefghijklmnopqrstuvwxyz+
(PID.TID 0000.0001) //                  0.0: .
(PID.TID 0000.0001) // RANGE I (Lo:Hi:Step):(1255:1266:   1)
(PID.TID 0000.0001) // RANGE J (Lo:Hi:Step):(   6:  -1:  -1)
(PID.TID 0000.0001) // RANGE K (Lo:Hi:Step):(   1:   1:   1)
(PID.TID 0000.0001) // =======================================================
(PID.TID 0000.0001) Model domain too big to print to terminal - skipping I/O
(PID.TID 0000.0001) // =======================================================
(PID.TID 0000.0001) // Field Model R_low (ini_masks_etc) tile    159 at iteration          1
(PID.TID 0000.0001) // CMIN =         -4.316000000000000E+03
(PID.TID 0000.0001) // CMAX =         -5.000000000000000E+01
(PID.TID 0000.0001) // CINT =          0.000000000000000E+00
(PID.TID 0000.0001) // SYMBOLS (CMIN->CMAX): -abcdefghijklmnopqrstuvwxyz+
(PID.TID 0000.0001) //                  0.0: .
(PID.TID 0000.0001) // RANGE I (Lo:Hi:Step):(1263:1274:   1)
(PID.TID 0000.0001) // RANGE J (Lo:Hi:Step):(   6:  -1:  -1)
(PID.TID 0000.0001) // RANGE K (Lo:Hi:Step):(   1:   1:   1)
(PID.TID 0000.0001) // =======================================================
(PID.TID 0000.0001) Model domain too big to print to terminal - skipping I/O
(PID.TID 0000.0001) // =======================================================
(PID.TID 0000.0001) // Field Model R_low (ini_masks_etc) tile    160 at iteration          1
(PID.TID 0000.0001) // CMIN =         -5.200000000000000E+03
(PID.TID 0000.0001) // CMAX =         -5.000000000000000E+01
(PID.TID 0000.0001) // CINT =          0.000000000000000E+00
(PID.TID 0000.0001) // SYMBOLS (CMIN->CMAX): -abcdefghijklmnopqrstuvwxyz+
(PID.TID 0000.0001) //                  0.0: .
(PID.TID 0000.0001) // RANGE I (Lo:Hi:Step):(1271:1282:   1)
(PID.TID 0000.0001) // RANGE J (Lo:Hi:Step):(   6:  -1:  -1)
(PID.TID 0000.0001) // RANGE K (Lo:Hi:Step):(   1:   1:   1)
(PID.TID 0000.0001) // =======================================================
(PID.TID 0000.0001) Model domain too big to print to terminal - skipping I/O
(PID.TID 0000.0001) // =======================================================
(PID.TID 0000.0001) // Field Model R_low (ini_masks_etc) tile    161 at iteration          1
(PID.TID 0000.0001) // CMIN =         -5.200000000000000E+03
(PID.TID 0000.0001) // CMAX =         -3.488000000000000E+03
(PID.TID 0000.0001) // CINT =          0.000000000000000E+00
(PID.TID 0000.0001) // SYMBOLS (CMIN->CMAX): -abcdefghijklmnopqrstuvwxyz+
(PID.TID 0000.0001) //                  0.0: .
(PID.TID 0000.0001) // RANGE I (Lo:Hi:Step):(1279:1290:   1)
(PID.TID 0000.0001) // RANGE J (Lo:Hi:Step):(   6:  -1:  -1)
(PID.TID 0000.0001) // RANGE K (Lo:Hi:Step):(   1:   1:   1)
(PID.TID 0000.0001) // =======================================================
(PID.TID 0000.0001) Model domain too big to print to terminal - skipping I/O
(PID.TID 0000.0001) // =======================================================
(PID.TID 0000.0001) // Field Model R_low (ini_masks_etc) tile    162 at iteration          1
(PID.TID 0000.0001) // CMIN =         -5.200000000000000E+03
(PID.TID 0000.0001) // CMAX =         -4.970000000000000E+02
(PID.TID 0000.0001) // CINT =          0.000000000000000E+00
(PID.TID 0000.0001) // SYMBOLS (CMIN->CMAX): -abcdefghijklmnopqrstuvwxyz+
(PID.TID 0000.0001) //                  0.0: .
(PID.TID 0000.0001) // RANGE I (Lo:Hi:Step):(1287:1298:   1)
(PID.TID 0000.0001) // RANGE J (Lo:Hi:Step):(   6:  -1:  -1)
(PID.TID 0000.0001) // RANGE K (Lo:Hi:Step):(   1:   1:   1)
(PID.TID 0000.0001) // =======================================================
(PID.TID 0000.0001) Model domain too big to print to terminal - skipping I/O
(PID.TID 0000.0001) // =======================================================
(PID.TID 0000.0001) // Field Model R_low (ini_masks_etc) tile    163 at iteration          1
(PID.TID 0000.0001) // CMIN =         -5.200000000000000E+03
(PID.TID 0000.0001) // CMAX =         -5.000000000000000E+01
(PID.TID 0000.0001) // CINT =          0.000000000000000E+00
(PID.TID 0000.0001) // SYMBOLS (CMIN->CMAX): -abcdefghijklmnopqrstuvwxyz+
(PID.TID 0000.0001) //                  0.0: .
(PID.TID 0000.0001) // RANGE I (Lo:Hi:Step):(1295:1306:   1)
(PID.TID 0000.0001) // RANGE J (Lo:Hi:Step):(   6:  -1:  -1)
(PID.TID 0000.0001) // RANGE K (Lo:Hi:Step):(   1:   1:   1)
(PID.TID 0000.0001) // =======================================================
(PID.TID 0000.0001) Model domain too big to print to terminal - skipping I/O
(PID.TID 0000.0001) // =======================================================
(PID.TID 0000.0001) // Field Model R_low (ini_masks_etc) tile    164 at iteration          1
(PID.TID 0000.0001) // CMIN =         -5.200000000000000E+03
(PID.TID 0000.0001) // CMAX =         -5.000000000000000E+01
(PID.TID 0000.0001) // CINT =          0.000000000000000E+00
(PID.TID 0000.0001) // SYMBOLS (CMIN->CMAX): -abcdefghijklmnopqrstuvwxyz+
(PID.TID 0000.0001) //                  0.0: .
(PID.TID 0000.0001) // RANGE I (Lo:Hi:Step):(1303:1314:   1)
(PID.TID 0000.0001) // RANGE J (Lo:Hi:Step):(   6:  -1:  -1)
(PID.TID 0000.0001) // RANGE K (Lo:Hi:Step):(   1:   1:   1)
(PID.TID 0000.0001) // =======================================================
(PID.TID 0000.0001) Model domain too big to print to terminal - skipping I/O
(PID.TID 0000.0001) // =======================================================
(PID.TID 0000.0001) // Field Model R_low (ini_masks_etc) tile    165 at iteration          1
(PID.TID 0000.0001) // CMIN =         -5.200000000000000E+03
(PID.TID 0000.0001) // CMAX =         -2.959000000000000E+03
(PID.TID 0000.0001) // CINT =          0.000000000000000E+00
(PID.TID 0000.0001) // SYMBOLS (CMIN->CMAX): -abcdefghijklmnopqrstuvwxyz+
(PID.TID 0000.0001) //                  0.0: .
(PID.TID 0000.0001) // RANGE I (Lo:Hi:Step):(1311:1322:   1)
(PID.TID 0000.0001) // RANGE J (Lo:Hi:Step):(   6:  -1:  -1)
(PID.TID 0000.0001) // RANGE K (Lo:Hi:Step):(   1:   1:   1)
(PID.TID 0000.0001) // =======================================================
(PID.TID 0000.0001) Model domain too big to print to terminal - skipping I/O
(PID.TID 0000.0001) // =======================================================
(PID.TID 0000.0001) // Field Model R_low (ini_masks_etc) tile    166 at iteration          1
(PID.TID 0000.0001) // CMIN =         -5.200000000000000E+03
(PID.TID 0000.0001) // CMAX =         -2.040000000000000E+02
(PID.TID 0000.0001) // CINT =          0.000000000000000E+00
(PID.TID 0000.0001) // SYMBOLS (CMIN->CMAX): -abcdefghijklmnopqrstuvwxyz+
(PID.TID 0000.0001) //                  0.0: .
(PID.TID 0000.0001) // RANGE I (Lo:Hi:Step):(1319:1330:   1)
(PID.TID 0000.0001) // RANGE J (Lo:Hi:Step):(   6:  -1:  -1)
(PID.TID 0000.0001) // RANGE K (Lo:Hi:Step):(   1:   1:   1)
(PID.TID 0000.0001) // =======================================================
(PID.TID 0000.0001) Model domain too big to print to terminal - skipping I/O
(PID.TID 0000.0001) // =======================================================
(PID.TID 0000.0001) // Field Model R_low (ini_masks_etc) tile    167 at iteration          1
(PID.TID 0000.0001) // CMIN =         -5.200000000000000E+03
(PID.TID 0000.0001) // CMAX =         -1.990000000000000E+02
(PID.TID 0000.0001) // CINT =          0.000000000000000E+00
(PID.TID 0000.0001) // SYMBOLS (CMIN->CMAX): -abcdefghijklmnopqrstuvwxyz+
(PID.TID 0000.0001) //                  0.0: .
(PID.TID 0000.0001) // RANGE I (Lo:Hi:Step):(1327:1338:   1)
(PID.TID 0000.0001) // RANGE J (Lo:Hi:Step):(   6:  -1:  -1)
(PID.TID 0000.0001) // RANGE K (Lo:Hi:Step):(   1:   1:   1)
(PID.TID 0000.0001) // =======================================================
(PID.TID 0000.0001) Model domain too big to print to terminal - skipping I/O
(PID.TID 0000.0001) // =======================================================
(PID.TID 0000.0001) // Field Model R_low (ini_masks_etc) tile    168 at iteration          1
(PID.TID 0000.0001) // CMIN =         -5.200000000000000E+03
(PID.TID 0000.0001) // CMAX =         -1.804000000000000E+03
(PID.TID 0000.0001) // CINT =          0.000000000000000E+00
(PID.TID 0000.0001) // SYMBOLS (CMIN->CMAX): -abcdefghijklmnopqrstuvwxyz+
(PID.TID 0000.0001) //                  0.0: .
(PID.TID 0000.0001) // RANGE I (Lo:Hi:Step):(1335:1346:   1)
(PID.TID 0000.0001) // RANGE J (Lo:Hi:Step):(   6:  -1:  -1)
(PID.TID 0000.0001) // RANGE K (Lo:Hi:Step):(   1:   1:   1)
(PID.TID 0000.0001) // =======================================================
(PID.TID 0000.0001) Model domain too big to print to terminal - skipping I/O
(PID.TID 0000.0001) // =======================================================
(PID.TID 0000.0001) // Field Model R_low (ini_masks_etc) tile    169 at iteration          1
(PID.TID 0000.0001) // CMIN =         -5.038000000000000E+03
(PID.TID 0000.0001) // CMAX =         -2.959000000000000E+03
(PID.TID 0000.0001) // CINT =          0.000000000000000E+00
(PID.TID 0000.0001) // SYMBOLS (CMIN->CMAX): -abcdefghijklmnopqrstuvwxyz+
(PID.TID 0000.0001) //                  0.0: .
(PID.TID 0000.0001) // RANGE I (Lo:Hi:Step):(1343:1354:   1)
(PID.TID 0000.0001) // RANGE J (Lo:Hi:Step):(   6:  -1:  -1)
(PID.TID 0000.0001) // RANGE K (Lo:Hi:Step):(   1:   1:   1)
(PID.TID 0000.0001) // =======================================================
(PID.TID 0000.0001) Model domain too big to print to terminal - skipping I/O
(PID.TID 0000.0001) // =======================================================
(PID.TID 0000.0001) // Field Model R_low (ini_masks_etc) tile    170 at iteration          1
(PID.TID 0000.0001) // CMIN =         -5.038000000000000E+03
(PID.TID 0000.0001) // CMAX =         -2.040000000000000E+02
(PID.TID 0000.0001) // CINT =          0.000000000000000E+00
(PID.TID 0000.0001) // SYMBOLS (CMIN->CMAX): -abcdefghijklmnopqrstuvwxyz+
(PID.TID 0000.0001) //                  0.0: .
(PID.TID 0000.0001) // RANGE I (Lo:Hi:Step):(1351:1362:   1)
(PID.TID 0000.0001) // RANGE J (Lo:Hi:Step):(   6:  -1:  -1)
(PID.TID 0000.0001) // RANGE K (Lo:Hi:Step):(   1:   1:   1)
(PID.TID 0000.0001) // =======================================================
(PID.TID 0000.0001) Model domain too big to print to terminal - skipping I/O
(PID.TID 0000.0001) // =======================================================
(PID.TID 0000.0001) // Field Model R_low (ini_masks_etc) tile    171 at iteration          1
(PID.TID 0000.0001) // CMIN =         -4.802000000000000E+03
(PID.TID 0000.0001) // CMAX =         -1.990000000000000E+02
(PID.TID 0000.0001) // CINT =          0.000000000000000E+00
(PID.TID 0000.0001) // SYMBOLS (CMIN->CMAX): -abcdefghijklmnopqrstuvwxyz+
(PID.TID 0000.0001) //                  0.0: .
(PID.TID 0000.0001) // RANGE I (Lo:Hi:Step):(1359:1370:   1)
(PID.TID 0000.0001) // RANGE J (Lo:Hi:Step):(   6:  -1:  -1)
(PID.TID 0000.0001) // RANGE K (Lo:Hi:Step):(   1:   1:   1)
(PID.TID 0000.0001) // =======================================================
(PID.TID 0000.0001) Model domain too big to print to terminal - skipping I/O
(PID.TID 0000.0001) // =======================================================
(PID.TID 0000.0001) // Field Model R_low (ini_masks_etc) tile    172 at iteration          1
(PID.TID 0000.0001) // CMIN =         -5.200000000000000E+03
(PID.TID 0000.0001) // CMAX =         -2.050000000000000E+02
(PID.TID 0000.0001) // CINT =          0.000000000000000E+00
(PID.TID 0000.0001) // SYMBOLS (CMIN->CMAX): -abcdefghijklmnopqrstuvwxyz+
(PID.TID 0000.0001) //                  0.0: .
(PID.TID 0000.0001) // RANGE I (Lo:Hi:Step):(1367:1378:   1)
(PID.TID 0000.0001) // RANGE J (Lo:Hi:Step):(   6:  -1:  -1)
(PID.TID 0000.0001) // RANGE K (Lo:Hi:Step):(   1:   1:   1)
(PID.TID 0000.0001) // =======================================================
(PID.TID 0000.0001) Model domain too big to print to terminal - skipping I/O
(PID.TID 0000.0001) // =======================================================
(PID.TID 0000.0001) // Field Model R_low (ini_masks_etc) tile    173 at iteration          1
(PID.TID 0000.0001) // CMIN =         -5.099000000000000E+03
(PID.TID 0000.0001) // CMAX =         -4.160000000000000E+02
(PID.TID 0000.0001) // CINT =          0.000000000000000E+00
(PID.TID 0000.0001) // SYMBOLS (CMIN->CMAX): -abcdefghijklmnopqrstuvwxyz+
(PID.TID 0000.0001) //                  0.0: .
(PID.TID 0000.0001) // RANGE I (Lo:Hi:Step):(1375:1386:   1)
(PID.TID 0000.0001) // RANGE J (Lo:Hi:Step):(   6:  -1:  -1)
(PID.TID 0000.0001) // RANGE K (Lo:Hi:Step):(   1:   1:   1)
(PID.TID 0000.0001) // =======================================================
(PID.TID 0000.0001) Model domain too big to print to terminal - skipping I/O
(PID.TID 0000.0001) // =======================================================
(PID.TID 0000.0001) // Field Model R_low (ini_masks_etc) tile    174 at iteration          1
(PID.TID 0000.0001) // CMIN =         -5.038000000000000E+03
(PID.TID 0000.0001) // CMAX =         -3.282912305773229E+02
(PID.TID 0000.0001) // CINT =          0.000000000000000E+00
(PID.TID 0000.0001) // SYMBOLS (CMIN->CMAX): -abcdefghijklmnopqrstuvwxyz+
(PID.TID 0000.0001) //                  0.0: .
(PID.TID 0000.0001) // RANGE I (Lo:Hi:Step):(1383:1394:   1)
(PID.TID 0000.0001) // RANGE J (Lo:Hi:Step):(   6:  -1:  -1)
(PID.TID 0000.0001) // RANGE K (Lo:Hi:Step):(   1:   1:   1)
(PID.TID 0000.0001) // =======================================================
(PID.TID 0000.0001) Model domain too big to print to terminal - skipping I/O
(PID.TID 0000.0001) // =======================================================
(PID.TID 0000.0001) // Field Model R_low (ini_masks_etc) tile    175 at iteration          1
(PID.TID 0000.0001) // CMIN =         -4.691000000000000E+03
(PID.TID 0000.0001) // CMAX =         -2.050000000000000E+02
(PID.TID 0000.0001) // CINT =          0.000000000000000E+00
(PID.TID 0000.0001) // SYMBOLS (CMIN->CMAX): -abcdefghijklmnopqrstuvwxyz+
(PID.TID 0000.0001) //                  0.0: .
(PID.TID 0000.0001) // RANGE I (Lo:Hi:Step):(1391:1402:   1)
(PID.TID 0000.0001) // RANGE J (Lo:Hi:Step):(   6:  -1:  -1)
(PID.TID 0000.0001) // RANGE K (Lo:Hi:Step):(   1:   1:   1)
(PID.TID 0000.0001) // =======================================================
(PID.TID 0000.0001) Model domain too big to print to terminal - skipping I/O
(PID.TID 0000.0001) // =======================================================
(PID.TID 0000.0001) // Field Model R_low (ini_masks_etc) tile    176 at iteration          1
(PID.TID 0000.0001) // CMIN =         -4.691000000000000E+03
(PID.TID 0000.0001) // CMAX =         -2.050000000000000E+02
(PID.TID 0000.0001) // CINT =          0.000000000000000E+00
(PID.TID 0000.0001) // SYMBOLS (CMIN->CMAX): -abcdefghijklmnopqrstuvwxyz+
(PID.TID 0000.0001) //                  0.0: .
(PID.TID 0000.0001) // RANGE I (Lo:Hi:Step):(1399:1410:   1)
(PID.TID 0000.0001) // RANGE J (Lo:Hi:Step):(   6:  -1:  -1)
(PID.TID 0000.0001) // RANGE K (Lo:Hi:Step):(   1:   1:   1)
(PID.TID 0000.0001) // =======================================================
(PID.TID 0000.0001) Model domain too big to print to terminal - skipping I/O
(PID.TID 0000.0001) // =======================================================
(PID.TID 0000.0001) // Field Model R_low (ini_masks_etc) tile    177 at iteration          1
(PID.TID 0000.0001) // CMIN =         -5.099000000000000E+03
(PID.TID 0000.0001) // CMAX =         -5.000000000000000E+01
(PID.TID 0000.0001) // CINT =          0.000000000000000E+00
(PID.TID 0000.0001) // SYMBOLS (CMIN->CMAX): -abcdefghijklmnopqrstuvwxyz+
(PID.TID 0000.0001) //                  0.0: .
(PID.TID 0000.0001) // RANGE I (Lo:Hi:Step):(1407:1418:   1)
(PID.TID 0000.0001) // RANGE J (Lo:Hi:Step):(   6:  -1:  -1)
(PID.TID 0000.0001) // RANGE K (Lo:Hi:Step):(   1:   1:   1)
(PID.TID 0000.0001) // =======================================================
(PID.TID 0000.0001) Model domain too big to print to terminal - skipping I/O
(PID.TID 0000.0001) // =======================================================
(PID.TID 0000.0001) // Field Model R_low (ini_masks_etc) tile    178 at iteration          1
(PID.TID 0000.0001) // CMIN =         -5.015000000000000E+03
(PID.TID 0000.0001) // CMAX =         -7.700000000000000E+01
(PID.TID 0000.0001) // CINT =          0.000000000000000E+00
(PID.TID 0000.0001) // SYMBOLS (CMIN->CMAX): -abcdefghijklmnopqrstuvwxyz+
(PID.TID 0000.0001) //                  0.0: .
(PID.TID 0000.0001) // RANGE I (Lo:Hi:Step):(1415:1426:   1)
(PID.TID 0000.0001) // RANGE J (Lo:Hi:Step):(   6:  -1:  -1)
(PID.TID 0000.0001) // RANGE K (Lo:Hi:Step):(   1:   1:   1)
(PID.TID 0000.0001) // =======================================================
(PID.TID 0000.0001) Model domain too big to print to terminal - skipping I/O
(PID.TID 0000.0001) // =======================================================
(PID.TID 0000.0001) // Field Model R_low (ini_masks_etc) tile    179 at iteration          1
(PID.TID 0000.0001) // CMIN =         -5.045000000000000E+03
(PID.TID 0000.0001) // CMAX =         -1.920000000000000E+02
(PID.TID 0000.0001) // CINT =          0.000000000000000E+00
(PID.TID 0000.0001) // SYMBOLS (CMIN->CMAX): -abcdefghijklmnopqrstuvwxyz+
(PID.TID 0000.0001) //                  0.0: .
(PID.TID 0000.0001) // RANGE I (Lo:Hi:Step):(1423:1434:   1)
(PID.TID 0000.0001) // RANGE J (Lo:Hi:Step):(   6:  -1:  -1)
(PID.TID 0000.0001) // RANGE K (Lo:Hi:Step):(   1:   1:   1)
(PID.TID 0000.0001) // =======================================================
(PID.TID 0000.0001) Model domain too big to print to terminal - skipping I/O
(PID.TID 0000.0001) // =======================================================
(PID.TID 0000.0001) // Field Model R_low (ini_masks_etc) tile    180 at iteration          1
(PID.TID 0000.0001) // CMIN =         -5.045000000000000E+03
(PID.TID 0000.0001) // CMAX =         -3.040000000000000E+02
(PID.TID 0000.0001) // CINT =          0.000000000000000E+00
(PID.TID 0000.0001) // SYMBOLS (CMIN->CMAX): -abcdefghijklmnopqrstuvwxyz+
(PID.TID 0000.0001) //                  0.0: .
(PID.TID 0000.0001) // RANGE I (Lo:Hi:Step):(1431:1442:   1)
(PID.TID 0000.0001) // RANGE J (Lo:Hi:Step):(   6:  -1:  -1)
(PID.TID 0000.0001) // RANGE K (Lo:Hi:Step):(   1:   1:   1)
(PID.TID 0000.0001) // =======================================================
(PID.TID 0000.0001) Model domain too big to print to terminal - skipping I/O
(PID.TID 0000.0001) // =======================================================
(PID.TID 0000.0001) // Field Model R_low (ini_masks_etc) tile    181 at iteration          1
(PID.TID 0000.0001) // CMIN =         -5.200000000000000E+03
(PID.TID 0000.0001) // CMAX =         -5.000000000000000E+01
(PID.TID 0000.0001) // CINT =          0.000000000000000E+00
(PID.TID 0000.0001) // SYMBOLS (CMIN->CMAX): -abcdefghijklmnopqrstuvwxyz+
(PID.TID 0000.0001) //                  0.0: .
(PID.TID 0000.0001) // RANGE I (Lo:Hi:Step):(1439:1450:   1)
(PID.TID 0000.0001) // RANGE J (Lo:Hi:Step):(   6:  -1:  -1)
(PID.TID 0000.0001) // RANGE K (Lo:Hi:Step):(   1:   1:   1)
(PID.TID 0000.0001) // =======================================================
(PID.TID 0000.0001) Model domain too big to print to terminal - skipping I/O
(PID.TID 0000.0001) // =======================================================
(PID.TID 0000.0001) // Field Model R_low (ini_masks_etc) tile    182 at iteration          1
(PID.TID 0000.0001) // CMIN =         -5.200000000000000E+03
(PID.TID 0000.0001) // CMAX =         -7.700000000000000E+01
(PID.TID 0000.0001) // CINT =          0.000000000000000E+00
(PID.TID 0000.0001) // SYMBOLS (CMIN->CMAX): -abcdefghijklmnopqrstuvwxyz+
(PID.TID 0000.0001) //                  0.0: .
(PID.TID 0000.0001) // RANGE I (Lo:Hi:Step):(1447:1458:   1)
(PID.TID 0000.0001) // RANGE J (Lo:Hi:Step):(   6:  -1:  -1)
(PID.TID 0000.0001) // RANGE K (Lo:Hi:Step):(   1:   1:   1)
(PID.TID 0000.0001) // =======================================================
(PID.TID 0000.0001) Model domain too big to print to terminal - skipping I/O
(PID.TID 0000.0001) // =======================================================
(PID.TID 0000.0001) // Field Model R_low (ini_masks_etc) tile    183 at iteration          1
(PID.TID 0000.0001) // CMIN =         -5.200000000000000E+03
(PID.TID 0000.0001) // CMAX =         -1.920000000000000E+02
(PID.TID 0000.0001) // CINT =          0.000000000000000E+00
(PID.TID 0000.0001) // SYMBOLS (CMIN->CMAX): -abcdefghijklmnopqrstuvwxyz+
(PID.TID 0000.0001) //                  0.0: .
(PID.TID 0000.0001) // RANGE I (Lo:Hi:Step):(1455:1466:   1)
(PID.TID 0000.0001) // RANGE J (Lo:Hi:Step):(   6:  -1:  -1)
(PID.TID 0000.0001) // RANGE K (Lo:Hi:Step):(   1:   1:   1)
(PID.TID 0000.0001) // =======================================================
(PID.TID 0000.0001) Model domain too big to print to terminal - skipping I/O
(PID.TID 0000.0001) // =======================================================
(PID.TID 0000.0001) // Field Model R_low (ini_masks_etc) tile    184 at iteration          1
(PID.TID 0000.0001) // CMIN =         -5.200000000000000E+03
(PID.TID 0000.0001) // CMAX =         -5.970000000000000E+02
(PID.TID 0000.0001) // CINT =          0.000000000000000E+00
(PID.TID 0000.0001) // SYMBOLS (CMIN->CMAX): -abcdefghijklmnopqrstuvwxyz+
(PID.TID 0000.0001) //                  0.0: .
(PID.TID 0000.0001) // RANGE I (Lo:Hi:Step):(1463:1474:   1)
(PID.TID 0000.0001) // RANGE J (Lo:Hi:Step):(   6:  -1:  -1)
(PID.TID 0000.0001) // RANGE K (Lo:Hi:Step):(   1:   1:   1)
(PID.TID 0000.0001) // =======================================================
(PID.TID 0000.0001) Model domain too big to print to terminal - skipping I/O
(PID.TID 0000.0001) // =======================================================
(PID.TID 0000.0001) // Field Model R_low (ini_masks_etc) tile    185 at iteration          1
(PID.TID 0000.0001) // CMIN =         -5.200000000000000E+03
(PID.TID 0000.0001) // CMAX =         -5.000000000000000E+01
(PID.TID 0000.0001) // CINT =          0.000000000000000E+00
(PID.TID 0000.0001) // SYMBOLS (CMIN->CMAX): -abcdefghijklmnopqrstuvwxyz+
(PID.TID 0000.0001) //                  0.0: .
(PID.TID 0000.0001) // RANGE I (Lo:Hi:Step):(1471:1482:   1)
(PID.TID 0000.0001) // RANGE J (Lo:Hi:Step):(   6:  -1:  -1)
(PID.TID 0000.0001) // RANGE K (Lo:Hi:Step):(   1:   1:   1)
(PID.TID 0000.0001) // =======================================================
(PID.TID 0000.0001) Model domain too big to print to terminal - skipping I/O
(PID.TID 0000.0001) // =======================================================
(PID.TID 0000.0001) // Field Model R_low (ini_masks_etc) tile    186 at iteration          1
(PID.TID 0000.0001) // CMIN =         -5.200000000000000E+03
(PID.TID 0000.0001) // CMAX =         -3.128571756291822E+02
(PID.TID 0000.0001) // CINT =          0.000000000000000E+00
(PID.TID 0000.0001) // SYMBOLS (CMIN->CMAX): -abcdefghijklmnopqrstuvwxyz+
(PID.TID 0000.0001) //                  0.0: .
(PID.TID 0000.0001) // RANGE I (Lo:Hi:Step):(1479:1490:   1)
(PID.TID 0000.0001) // RANGE J (Lo:Hi:Step):(   6:  -1:  -1)
(PID.TID 0000.0001) // RANGE K (Lo:Hi:Step):(   1:   1:   1)
(PID.TID 0000.0001) // =======================================================
(PID.TID 0000.0001) Model domain too big to print to terminal - skipping I/O
(PID.TID 0000.0001) // =======================================================
(PID.TID 0000.0001) // Field Model R_low (ini_masks_etc) tile    187 at iteration          1
(PID.TID 0000.0001) // CMIN =         -5.200000000000000E+03
(PID.TID 0000.0001) // CMAX =         -3.128571756291822E+02
(PID.TID 0000.0001) // CINT =          0.000000000000000E+00
(PID.TID 0000.0001) // SYMBOLS (CMIN->CMAX): -abcdefghijklmnopqrstuvwxyz+
(PID.TID 0000.0001) //                  0.0: .
(PID.TID 0000.0001) // RANGE I (Lo:Hi:Step):(1487:1498:   1)
(PID.TID 0000.0001) // RANGE J (Lo:Hi:Step):(   6:  -1:  -1)
(PID.TID 0000.0001) // RANGE K (Lo:Hi:Step):(   1:   1:   1)
(PID.TID 0000.0001) // =======================================================
(PID.TID 0000.0001) Model domain too big to print to terminal - skipping I/O
(PID.TID 0000.0001) // =======================================================
(PID.TID 0000.0001) // Field Model R_low (ini_masks_etc) tile    188 at iteration          1
(PID.TID 0000.0001) // CMIN =         -5.200000000000000E+03
(PID.TID 0000.0001) // CMAX =         -2.106000000000000E+03
(PID.TID 0000.0001) // CINT =          0.000000000000000E+00
(PID.TID 0000.0001) // SYMBOLS (CMIN->CMAX): -abcdefghijklmnopqrstuvwxyz+
(PID.TID 0000.0001) //                  0.0: .
(PID.TID 0000.0001) // RANGE I (Lo:Hi:Step):(1495:1506:   1)
(PID.TID 0000.0001) // RANGE J (Lo:Hi:Step):(   6:  -1:  -1)
(PID.TID 0000.0001) // RANGE K (Lo:Hi:Step):(   1:   1:   1)
(PID.TID 0000.0001) // =======================================================
(PID.TID 0000.0001) Model domain too big to print to terminal - skipping I/O
(PID.TID 0000.0001) // =======================================================
(PID.TID 0000.0001) // Field Model R_low (ini_masks_etc) tile    189 at iteration          1
(PID.TID 0000.0001) // CMIN =         -5.200000000000000E+03
(PID.TID 0000.0001) // CMAX =         -5.000000000000000E+01
(PID.TID 0000.0001) // CINT =          0.000000000000000E+00
(PID.TID 0000.0001) // SYMBOLS (CMIN->CMAX): -abcdefghijklmnopqrstuvwxyz+
(PID.TID 0000.0001) //                  0.0: .
(PID.TID 0000.0001) // RANGE I (Lo:Hi:Step):(1503:1514:   1)
(PID.TID 0000.0001) // RANGE J (Lo:Hi:Step):(   6:  -1:  -1)
(PID.TID 0000.0001) // RANGE K (Lo:Hi:Step):(   1:   1:   1)
(PID.TID 0000.0001) // =======================================================
(PID.TID 0000.0001) Model domain too big to print to terminal - skipping I/O
(PID.TID 0000.0001) // =======================================================
(PID.TID 0000.0001) // Field Model R_low (ini_masks_etc) tile    190 at iteration          1
(PID.TID 0000.0001) // CMIN =         -5.200000000000000E+03
(PID.TID 0000.0001) // CMAX =         -2.582000000000000E+03
(PID.TID 0000.0001) // CINT =          0.000000000000000E+00
(PID.TID 0000.0001) // SYMBOLS (CMIN->CMAX): -abcdefghijklmnopqrstuvwxyz+
(PID.TID 0000.0001) //                  0.0: .
(PID.TID 0000.0001) // RANGE I (Lo:Hi:Step):(1511:1522:   1)
(PID.TID 0000.0001) // RANGE J (Lo:Hi:Step):(   6:  -1:  -1)
(PID.TID 0000.0001) // RANGE K (Lo:Hi:Step):(   1:   1:   1)
(PID.TID 0000.0001) // =======================================================
(PID.TID 0000.0001) Model domain too big to print to terminal - skipping I/O
(PID.TID 0000.0001) // =======================================================
(PID.TID 0000.0001) // Field Model R_low (ini_masks_etc) tile    191 at iteration          1
(PID.TID 0000.0001) // CMIN =         -5.200000000000000E+03
(PID.TID 0000.0001) // CMAX =         -2.515000000000000E+03
(PID.TID 0000.0001) // CINT =          0.000000000000000E+00
(PID.TID 0000.0001) // SYMBOLS (CMIN->CMAX): -abcdefghijklmnopqrstuvwxyz+
(PID.TID 0000.0001) //                  0.0: .
(PID.TID 0000.0001) // RANGE I (Lo:Hi:Step):(1519:1530:   1)
(PID.TID 0000.0001) // RANGE J (Lo:Hi:Step):(   6:  -1:  -1)
(PID.TID 0000.0001) // RANGE K (Lo:Hi:Step):(   1:   1:   1)
(PID.TID 0000.0001) // =======================================================
(PID.TID 0000.0001) Model domain too big to print to terminal - skipping I/O
(PID.TID 0000.0001) // =======================================================
(PID.TID 0000.0001) // Field Model R_low (ini_masks_etc) tile    192 at iteration          1
(PID.TID 0000.0001) // CMIN =         -5.200000000000000E+03
(PID.TID 0000.0001) // CMAX =         -1.609000000000000E+03
(PID.TID 0000.0001) // CINT =          0.000000000000000E+00
(PID.TID 0000.0001) // SYMBOLS (CMIN->CMAX): -abcdefghijklmnopqrstuvwxyz+
(PID.TID 0000.0001) //                  0.0: .
(PID.TID 0000.0001) // RANGE I (Lo:Hi:Step):(1527:1538:   1)
(PID.TID 0000.0001) // RANGE J (Lo:Hi:Step):(   6:  -1:  -1)
(PID.TID 0000.0001) // RANGE K (Lo:Hi:Step):(   1:   1:   1)
(PID.TID 0000.0001) // =======================================================
(PID.TID 0000.0001) Model domain too big to print to terminal - skipping I/O
(PID.TID 0000.0001) // =======================================================
(PID.TID 0000.0001) // Field Model Ro_surf (ini_masks_etc) tile      1 at iteration          1
(PID.TID 0000.0001) // CMIN =          1.000000000000000E+32
(PID.TID 0000.0001) // CMAX =         -1.000000000000000E+32
(PID.TID 0000.0001) // CINT =          0.000000000000000E+00
(PID.TID 0000.0001) // SYMBOLS (CMIN->CMAX): -abcdefghijklmnopqrstuvwxyz+
(PID.TID 0000.0001) //                  0.0: .
(PID.TID 0000.0001) // RANGE I (Lo:Hi:Step):(  -1:  10:   1)
(PID.TID 0000.0001) // RANGE J (Lo:Hi:Step):(   6:  -1:  -1)
(PID.TID 0000.0001) // RANGE K (Lo:Hi:Step):(   1:   1:   1)
(PID.TID 0000.0001) // =======================================================
(PID.TID 0000.0001) Model domain too big to print to terminal - skipping I/O
(PID.TID 0000.0001) // =======================================================
(PID.TID 0000.0001) // Field Model Ro_surf (ini_masks_etc) tile      2 at iteration          1
(PID.TID 0000.0001) // CMIN =          1.000000000000000E+32
(PID.TID 0000.0001) // CMAX =         -1.000000000000000E+32
(PID.TID 0000.0001) // CINT =          0.000000000000000E+00
(PID.TID 0000.0001) // SYMBOLS (CMIN->CMAX): -abcdefghijklmnopqrstuvwxyz+
(PID.TID 0000.0001) //                  0.0: .
(PID.TID 0000.0001) // RANGE I (Lo:Hi:Step):(   7:  18:   1)
(PID.TID 0000.0001) // RANGE J (Lo:Hi:Step):(   6:  -1:  -1)
(PID.TID 0000.0001) // RANGE K (Lo:Hi:Step):(   1:   1:   1)
(PID.TID 0000.0001) // =======================================================
(PID.TID 0000.0001) Model domain too big to print to terminal - skipping I/O
(PID.TID 0000.0001) // =======================================================
(PID.TID 0000.0001) // Field Model Ro_surf (ini_masks_etc) tile      3 at iteration          1
(PID.TID 0000.0001) // CMIN =          1.000000000000000E+32
(PID.TID 0000.0001) // CMAX =         -1.000000000000000E+32
(PID.TID 0000.0001) // CINT =          0.000000000000000E+00
(PID.TID 0000.0001) // SYMBOLS (CMIN->CMAX): -abcdefghijklmnopqrstuvwxyz+
(PID.TID 0000.0001) //                  0.0: .
(PID.TID 0000.0001) // RANGE I (Lo:Hi:Step):(  15:  26:   1)
(PID.TID 0000.0001) // RANGE J (Lo:Hi:Step):(   6:  -1:  -1)
(PID.TID 0000.0001) // RANGE K (Lo:Hi:Step):(   1:   1:   1)
(PID.TID 0000.0001) // =======================================================
(PID.TID 0000.0001) Model domain too big to print to terminal - skipping I/O
(PID.TID 0000.0001) // =======================================================
(PID.TID 0000.0001) // Field Model Ro_surf (ini_masks_etc) tile      4 at iteration          1
(PID.TID 0000.0001) // CMIN =          1.000000000000000E+32
(PID.TID 0000.0001) // CMAX =         -1.000000000000000E+32
(PID.TID 0000.0001) // CINT =          0.000000000000000E+00
(PID.TID 0000.0001) // SYMBOLS (CMIN->CMAX): -abcdefghijklmnopqrstuvwxyz+
(PID.TID 0000.0001) //                  0.0: .
(PID.TID 0000.0001) // RANGE I (Lo:Hi:Step):(  23:  34:   1)
(PID.TID 0000.0001) // RANGE J (Lo:Hi:Step):(   6:  -1:  -1)
(PID.TID 0000.0001) // RANGE K (Lo:Hi:Step):(   1:   1:   1)
(PID.TID 0000.0001) // =======================================================
(PID.TID 0000.0001) Model domain too big to print to terminal - skipping I/O
(PID.TID 0000.0001) // =======================================================
(PID.TID 0000.0001) // Field Model Ro_surf (ini_masks_etc) tile      5 at iteration          1
(PID.TID 0000.0001) // CMIN =          1.000000000000000E+32
(PID.TID 0000.0001) // CMAX =         -1.000000000000000E+32
(PID.TID 0000.0001) // CINT =          0.000000000000000E+00
(PID.TID 0000.0001) // SYMBOLS (CMIN->CMAX): -abcdefghijklmnopqrstuvwxyz+
(PID.TID 0000.0001) //                  0.0: .
(PID.TID 0000.0001) // RANGE I (Lo:Hi:Step):(  31:  42:   1)
(PID.TID 0000.0001) // RANGE J (Lo:Hi:Step):(   6:  -1:  -1)
(PID.TID 0000.0001) // RANGE K (Lo:Hi:Step):(   1:   1:   1)
(PID.TID 0000.0001) // =======================================================
(PID.TID 0000.0001) Model domain too big to print to terminal - skipping I/O
(PID.TID 0000.0001) // =======================================================
(PID.TID 0000.0001) // Field Model Ro_surf (ini_masks_etc) tile      6 at iteration          1
(PID.TID 0000.0001) // CMIN =          1.000000000000000E+32
(PID.TID 0000.0001) // CMAX =         -1.000000000000000E+32
(PID.TID 0000.0001) // CINT =          0.000000000000000E+00
(PID.TID 0000.0001) // SYMBOLS (CMIN->CMAX): -abcdefghijklmnopqrstuvwxyz+
(PID.TID 0000.0001) //                  0.0: .
(PID.TID 0000.0001) // RANGE I (Lo:Hi:Step):(  39:  50:   1)
(PID.TID 0000.0001) // RANGE J (Lo:Hi:Step):(   6:  -1:  -1)
(PID.TID 0000.0001) // RANGE K (Lo:Hi:Step):(   1:   1:   1)
(PID.TID 0000.0001) // =======================================================
(PID.TID 0000.0001) Model domain too big to print to terminal - skipping I/O
(PID.TID 0000.0001) // =======================================================
(PID.TID 0000.0001) // Field Model Ro_surf (ini_masks_etc) tile      7 at iteration          1
(PID.TID 0000.0001) // CMIN =          1.000000000000000E+32
(PID.TID 0000.0001) // CMAX =         -1.000000000000000E+32
(PID.TID 0000.0001) // CINT =          0.000000000000000E+00
(PID.TID 0000.0001) // SYMBOLS (CMIN->CMAX): -abcdefghijklmnopqrstuvwxyz+
(PID.TID 0000.0001) //                  0.0: .
(PID.TID 0000.0001) // RANGE I (Lo:Hi:Step):(  47:  58:   1)
(PID.TID 0000.0001) // RANGE J (Lo:Hi:Step):(   6:  -1:  -1)
(PID.TID 0000.0001) // RANGE K (Lo:Hi:Step):(   1:   1:   1)
(PID.TID 0000.0001) // =======================================================
(PID.TID 0000.0001) Model domain too big to print to terminal - skipping I/O
(PID.TID 0000.0001) // =======================================================
(PID.TID 0000.0001) // Field Model Ro_surf (ini_masks_etc) tile      8 at iteration          1
(PID.TID 0000.0001) // CMIN =         -7.105427357601002E-15
(PID.TID 0000.0001) // CMAX =         -7.105427357601002E-15
(PID.TID 0000.0001) // CINT =          0.000000000000000E+00
(PID.TID 0000.0001) // SYMBOLS (CMIN->CMAX): -abcdefghijklmnopqrstuvwxyz+
(PID.TID 0000.0001) //                  0.0: .
(PID.TID 0000.0001) // RANGE I (Lo:Hi:Step):(  55:  66:   1)
(PID.TID 0000.0001) // RANGE J (Lo:Hi:Step):(   6:  -1:  -1)
(PID.TID 0000.0001) // RANGE K (Lo:Hi:Step):(   1:   1:   1)
(PID.TID 0000.0001) // =======================================================
(PID.TID 0000.0001) Model domain too big to print to terminal - skipping I/O
(PID.TID 0000.0001) // =======================================================
(PID.TID 0000.0001) // Field Model Ro_surf (ini_masks_etc) tile      9 at iteration          1
(PID.TID 0000.0001) // CMIN =          1.000000000000000E+32
(PID.TID 0000.0001) // CMAX =         -1.000000000000000E+32
(PID.TID 0000.0001) // CINT =          0.000000000000000E+00
(PID.TID 0000.0001) // SYMBOLS (CMIN->CMAX): -abcdefghijklmnopqrstuvwxyz+
(PID.TID 0000.0001) //                  0.0: .
(PID.TID 0000.0001) // RANGE I (Lo:Hi:Step):(  63:  74:   1)
(PID.TID 0000.0001) // RANGE J (Lo:Hi:Step):(   6:  -1:  -1)
(PID.TID 0000.0001) // RANGE K (Lo:Hi:Step):(   1:   1:   1)
(PID.TID 0000.0001) // =======================================================
(PID.TID 0000.0001) Model domain too big to print to terminal - skipping I/O
(PID.TID 0000.0001) // =======================================================
(PID.TID 0000.0001) // Field Model Ro_surf (ini_masks_etc) tile     10 at iteration          1
(PID.TID 0000.0001) // CMIN =          1.000000000000000E+32
(PID.TID 0000.0001) // CMAX =         -1.000000000000000E+32
(PID.TID 0000.0001) // CINT =          0.000000000000000E+00
(PID.TID 0000.0001) // SYMBOLS (CMIN->CMAX): -abcdefghijklmnopqrstuvwxyz+
(PID.TID 0000.0001) //                  0.0: .
(PID.TID 0000.0001) // RANGE I (Lo:Hi:Step):(  71:  82:   1)
(PID.TID 0000.0001) // RANGE J (Lo:Hi:Step):(   6:  -1:  -1)
(PID.TID 0000.0001) // RANGE K (Lo:Hi:Step):(   1:   1:   1)
(PID.TID 0000.0001) // =======================================================
(PID.TID 0000.0001) Model domain too big to print to terminal - skipping I/O
(PID.TID 0000.0001) // =======================================================
(PID.TID 0000.0001) // Field Model Ro_surf (ini_masks_etc) tile     11 at iteration          1
(PID.TID 0000.0001) // CMIN =          1.000000000000000E+32
(PID.TID 0000.0001) // CMAX =         -1.000000000000000E+32
(PID.TID 0000.0001) // CINT =          0.000000000000000E+00
(PID.TID 0000.0001) // SYMBOLS (CMIN->CMAX): -abcdefghijklmnopqrstuvwxyz+
(PID.TID 0000.0001) //                  0.0: .
(PID.TID 0000.0001) // RANGE I (Lo:Hi:Step):(  79:  90:   1)
(PID.TID 0000.0001) // RANGE J (Lo:Hi:Step):(   6:  -1:  -1)
(PID.TID 0000.0001) // RANGE K (Lo:Hi:Step):(   1:   1:   1)
(PID.TID 0000.0001) // =======================================================
(PID.TID 0000.0001) Model domain too big to print to terminal - skipping I/O
(PID.TID 0000.0001) // =======================================================
(PID.TID 0000.0001) // Field Model Ro_surf (ini_masks_etc) tile     12 at iteration          1
(PID.TID 0000.0001) // CMIN =         -7.105427357601002E-15
(PID.TID 0000.0001) // CMAX =         -7.105427357601002E-15
(PID.TID 0000.0001) // CINT =          0.000000000000000E+00
(PID.TID 0000.0001) // SYMBOLS (CMIN->CMAX): -abcdefghijklmnopqrstuvwxyz+
(PID.TID 0000.0001) //                  0.0: .
(PID.TID 0000.0001) // RANGE I (Lo:Hi:Step):(  87:  98:   1)
(PID.TID 0000.0001) // RANGE J (Lo:Hi:Step):(   6:  -1:  -1)
(PID.TID 0000.0001) // RANGE K (Lo:Hi:Step):(   1:   1:   1)
(PID.TID 0000.0001) // =======================================================
(PID.TID 0000.0001) Model domain too big to print to terminal - skipping I/O
(PID.TID 0000.0001) // =======================================================
(PID.TID 0000.0001) // Field Model Ro_surf (ini_masks_etc) tile     13 at iteration          1
(PID.TID 0000.0001) // CMIN =          1.000000000000000E+32
(PID.TID 0000.0001) // CMAX =         -1.000000000000000E+32
(PID.TID 0000.0001) // CINT =          0.000000000000000E+00
(PID.TID 0000.0001) // SYMBOLS (CMIN->CMAX): -abcdefghijklmnopqrstuvwxyz+
(PID.TID 0000.0001) //                  0.0: .
(PID.TID 0000.0001) // RANGE I (Lo:Hi:Step):(  95: 106:   1)
(PID.TID 0000.0001) // RANGE J (Lo:Hi:Step):(   6:  -1:  -1)
(PID.TID 0000.0001) // RANGE K (Lo:Hi:Step):(   1:   1:   1)
(PID.TID 0000.0001) // =======================================================
(PID.TID 0000.0001) Model domain too big to print to terminal - skipping I/O
(PID.TID 0000.0001) // =======================================================
(PID.TID 0000.0001) // Field Model Ro_surf (ini_masks_etc) tile     14 at iteration          1
(PID.TID 0000.0001) // CMIN =          1.000000000000000E+32
(PID.TID 0000.0001) // CMAX =         -1.000000000000000E+32
(PID.TID 0000.0001) // CINT =          0.000000000000000E+00
(PID.TID 0000.0001) // SYMBOLS (CMIN->CMAX): -abcdefghijklmnopqrstuvwxyz+
(PID.TID 0000.0001) //                  0.0: .
(PID.TID 0000.0001) // RANGE I (Lo:Hi:Step):( 103: 114:   1)
(PID.TID 0000.0001) // RANGE J (Lo:Hi:Step):(   6:  -1:  -1)
(PID.TID 0000.0001) // RANGE K (Lo:Hi:Step):(   1:   1:   1)
(PID.TID 0000.0001) // =======================================================
(PID.TID 0000.0001) Model domain too big to print to terminal - skipping I/O
(PID.TID 0000.0001) // =======================================================
(PID.TID 0000.0001) // Field Model Ro_surf (ini_masks_etc) tile     15 at iteration          1
(PID.TID 0000.0001) // CMIN =          1.000000000000000E+32
(PID.TID 0000.0001) // CMAX =         -1.000000000000000E+32
(PID.TID 0000.0001) // CINT =          0.000000000000000E+00
(PID.TID 0000.0001) // SYMBOLS (CMIN->CMAX): -abcdefghijklmnopqrstuvwxyz+
(PID.TID 0000.0001) //                  0.0: .
(PID.TID 0000.0001) // RANGE I (Lo:Hi:Step):( 111: 122:   1)
(PID.TID 0000.0001) // RANGE J (Lo:Hi:Step):(   6:  -1:  -1)
(PID.TID 0000.0001) // RANGE K (Lo:Hi:Step):(   1:   1:   1)
(PID.TID 0000.0001) // =======================================================
(PID.TID 0000.0001) Model domain too big to print to terminal - skipping I/O
(PID.TID 0000.0001) // =======================================================
(PID.TID 0000.0001) // Field Model Ro_surf (ini_masks_etc) tile     16 at iteration          1
(PID.TID 0000.0001) // CMIN =          1.000000000000000E+32
(PID.TID 0000.0001) // CMAX =         -1.000000000000000E+32
(PID.TID 0000.0001) // CINT =          0.000000000000000E+00
(PID.TID 0000.0001) // SYMBOLS (CMIN->CMAX): -abcdefghijklmnopqrstuvwxyz+
(PID.TID 0000.0001) //                  0.0: .
(PID.TID 0000.0001) // RANGE I (Lo:Hi:Step):( 119: 130:   1)
(PID.TID 0000.0001) // RANGE J (Lo:Hi:Step):(   6:  -1:  -1)
(PID.TID 0000.0001) // RANGE K (Lo:Hi:Step):(   1:   1:   1)
(PID.TID 0000.0001) // =======================================================
(PID.TID 0000.0001) Model domain too big to print to terminal - skipping I/O
(PID.TID 0000.0001) // =======================================================
(PID.TID 0000.0001) // Field Model Ro_surf (ini_masks_etc) tile     17 at iteration          1
(PID.TID 0000.0001) // CMIN =          1.000000000000000E+32
(PID.TID 0000.0001) // CMAX =         -1.000000000000000E+32
(PID.TID 0000.0001) // CINT =          0.000000000000000E+00
(PID.TID 0000.0001) // SYMBOLS (CMIN->CMAX): -abcdefghijklmnopqrstuvwxyz+
(PID.TID 0000.0001) //                  0.0: .
(PID.TID 0000.0001) // RANGE I (Lo:Hi:Step):( 127: 138:   1)
(PID.TID 0000.0001) // RANGE J (Lo:Hi:Step):(   6:  -1:  -1)
(PID.TID 0000.0001) // RANGE K (Lo:Hi:Step):(   1:   1:   1)
(PID.TID 0000.0001) // =======================================================
(PID.TID 0000.0001) Model domain too big to print to terminal - skipping I/O
(PID.TID 0000.0001) // =======================================================
(PID.TID 0000.0001) // Field Model Ro_surf (ini_masks_etc) tile     18 at iteration          1
(PID.TID 0000.0001) // CMIN =          1.000000000000000E+32
(PID.TID 0000.0001) // CMAX =         -1.000000000000000E+32
(PID.TID 0000.0001) // CINT =          0.000000000000000E+00
(PID.TID 0000.0001) // SYMBOLS (CMIN->CMAX): -abcdefghijklmnopqrstuvwxyz+
(PID.TID 0000.0001) //                  0.0: .
(PID.TID 0000.0001) // RANGE I (Lo:Hi:Step):( 135: 146:   1)
(PID.TID 0000.0001) // RANGE J (Lo:Hi:Step):(   6:  -1:  -1)
(PID.TID 0000.0001) // RANGE K (Lo:Hi:Step):(   1:   1:   1)
(PID.TID 0000.0001) // =======================================================
(PID.TID 0000.0001) Model domain too big to print to terminal - skipping I/O
(PID.TID 0000.0001) // =======================================================
(PID.TID 0000.0001) // Field Model Ro_surf (ini_masks_etc) tile     19 at iteration          1
(PID.TID 0000.0001) // CMIN =          1.000000000000000E+32
(PID.TID 0000.0001) // CMAX =         -1.000000000000000E+32
(PID.TID 0000.0001) // CINT =          0.000000000000000E+00
(PID.TID 0000.0001) // SYMBOLS (CMIN->CMAX): -abcdefghijklmnopqrstuvwxyz+
(PID.TID 0000.0001) //                  0.0: .
(PID.TID 0000.0001) // RANGE I (Lo:Hi:Step):( 143: 154:   1)
(PID.TID 0000.0001) // RANGE J (Lo:Hi:Step):(   6:  -1:  -1)
(PID.TID 0000.0001) // RANGE K (Lo:Hi:Step):(   1:   1:   1)
(PID.TID 0000.0001) // =======================================================
(PID.TID 0000.0001) Model domain too big to print to terminal - skipping I/O
(PID.TID 0000.0001) // =======================================================
(PID.TID 0000.0001) // Field Model Ro_surf (ini_masks_etc) tile     20 at iteration          1
(PID.TID 0000.0001) // CMIN =          1.000000000000000E+32
(PID.TID 0000.0001) // CMAX =         -1.000000000000000E+32
(PID.TID 0000.0001) // CINT =          0.000000000000000E+00
(PID.TID 0000.0001) // SYMBOLS (CMIN->CMAX): -abcdefghijklmnopqrstuvwxyz+
(PID.TID 0000.0001) //                  0.0: .
(PID.TID 0000.0001) // RANGE I (Lo:Hi:Step):( 151: 162:   1)
(PID.TID 0000.0001) // RANGE J (Lo:Hi:Step):(   6:  -1:  -1)
(PID.TID 0000.0001) // RANGE K (Lo:Hi:Step):(   1:   1:   1)
(PID.TID 0000.0001) // =======================================================
(PID.TID 0000.0001) Model domain too big to print to terminal - skipping I/O
(PID.TID 0000.0001) // =======================================================
(PID.TID 0000.0001) // Field Model Ro_surf (ini_masks_etc) tile     21 at iteration          1
(PID.TID 0000.0001) // CMIN =          1.000000000000000E+32
(PID.TID 0000.0001) // CMAX =         -1.000000000000000E+32
(PID.TID 0000.0001) // CINT =          0.000000000000000E+00
(PID.TID 0000.0001) // SYMBOLS (CMIN->CMAX): -abcdefghijklmnopqrstuvwxyz+
(PID.TID 0000.0001) //                  0.0: .
(PID.TID 0000.0001) // RANGE I (Lo:Hi:Step):( 159: 170:   1)
(PID.TID 0000.0001) // RANGE J (Lo:Hi:Step):(   6:  -1:  -1)
(PID.TID 0000.0001) // RANGE K (Lo:Hi:Step):(   1:   1:   1)
(PID.TID 0000.0001) // =======================================================
(PID.TID 0000.0001) Model domain too big to print to terminal - skipping I/O
(PID.TID 0000.0001) // =======================================================
(PID.TID 0000.0001) // Field Model Ro_surf (ini_masks_etc) tile     22 at iteration          1
(PID.TID 0000.0001) // CMIN =          1.000000000000000E+32
(PID.TID 0000.0001) // CMAX =         -1.000000000000000E+32
(PID.TID 0000.0001) // CINT =          0.000000000000000E+00
(PID.TID 0000.0001) // SYMBOLS (CMIN->CMAX): -abcdefghijklmnopqrstuvwxyz+
(PID.TID 0000.0001) //                  0.0: .
(PID.TID 0000.0001) // RANGE I (Lo:Hi:Step):( 167: 178:   1)
(PID.TID 0000.0001) // RANGE J (Lo:Hi:Step):(   6:  -1:  -1)
(PID.TID 0000.0001) // RANGE K (Lo:Hi:Step):(   1:   1:   1)
(PID.TID 0000.0001) // =======================================================
(PID.TID 0000.0001) Model domain too big to print to terminal - skipping I/O
(PID.TID 0000.0001) // =======================================================
(PID.TID 0000.0001) // Field Model Ro_surf (ini_masks_etc) tile     23 at iteration          1
(PID.TID 0000.0001) // CMIN =          1.000000000000000E+32
(PID.TID 0000.0001) // CMAX =         -1.000000000000000E+32
(PID.TID 0000.0001) // CINT =          0.000000000000000E+00
(PID.TID 0000.0001) // SYMBOLS (CMIN->CMAX): -abcdefghijklmnopqrstuvwxyz+
(PID.TID 0000.0001) //                  0.0: .
(PID.TID 0000.0001) // RANGE I (Lo:Hi:Step):( 175: 186:   1)
(PID.TID 0000.0001) // RANGE J (Lo:Hi:Step):(   6:  -1:  -1)
(PID.TID 0000.0001) // RANGE K (Lo:Hi:Step):(   1:   1:   1)
(PID.TID 0000.0001) // =======================================================
(PID.TID 0000.0001) Model domain too big to print to terminal - skipping I/O
(PID.TID 0000.0001) // =======================================================
(PID.TID 0000.0001) // Field Model Ro_surf (ini_masks_etc) tile     24 at iteration          1
(PID.TID 0000.0001) // CMIN =          1.000000000000000E+32
(PID.TID 0000.0001) // CMAX =         -1.000000000000000E+32
(PID.TID 0000.0001) // CINT =          0.000000000000000E+00
(PID.TID 0000.0001) // SYMBOLS (CMIN->CMAX): -abcdefghijklmnopqrstuvwxyz+
(PID.TID 0000.0001) //                  0.0: .
(PID.TID 0000.0001) // RANGE I (Lo:Hi:Step):( 183: 194:   1)
(PID.TID 0000.0001) // RANGE J (Lo:Hi:Step):(   6:  -1:  -1)
(PID.TID 0000.0001) // RANGE K (Lo:Hi:Step):(   1:   1:   1)
(PID.TID 0000.0001) // =======================================================
(PID.TID 0000.0001) Model domain too big to print to terminal - skipping I/O
(PID.TID 0000.0001) // =======================================================
(PID.TID 0000.0001) // Field Model Ro_surf (ini_masks_etc) tile     25 at iteration          1
(PID.TID 0000.0001) // CMIN =          1.000000000000000E+32
(PID.TID 0000.0001) // CMAX =         -1.000000000000000E+32
(PID.TID 0000.0001) // CINT =          0.000000000000000E+00
(PID.TID 0000.0001) // SYMBOLS (CMIN->CMAX): -abcdefghijklmnopqrstuvwxyz+
(PID.TID 0000.0001) //                  0.0: .
(PID.TID 0000.0001) // RANGE I (Lo:Hi:Step):( 191: 202:   1)
(PID.TID 0000.0001) // RANGE J (Lo:Hi:Step):(   6:  -1:  -1)
(PID.TID 0000.0001) // RANGE K (Lo:Hi:Step):(   1:   1:   1)
(PID.TID 0000.0001) // =======================================================
(PID.TID 0000.0001) Model domain too big to print to terminal - skipping I/O
(PID.TID 0000.0001) // =======================================================
(PID.TID 0000.0001) // Field Model Ro_surf (ini_masks_etc) tile     26 at iteration          1
(PID.TID 0000.0001) // CMIN =          1.000000000000000E+32
(PID.TID 0000.0001) // CMAX =         -1.000000000000000E+32
(PID.TID 0000.0001) // CINT =          0.000000000000000E+00
(PID.TID 0000.0001) // SYMBOLS (CMIN->CMAX): -abcdefghijklmnopqrstuvwxyz+
(PID.TID 0000.0001) //                  0.0: .
(PID.TID 0000.0001) // RANGE I (Lo:Hi:Step):( 199: 210:   1)
(PID.TID 0000.0001) // RANGE J (Lo:Hi:Step):(   6:  -1:  -1)
(PID.TID 0000.0001) // RANGE K (Lo:Hi:Step):(   1:   1:   1)
(PID.TID 0000.0001) // =======================================================
(PID.TID 0000.0001) Model domain too big to print to terminal - skipping I/O
(PID.TID 0000.0001) // =======================================================
(PID.TID 0000.0001) // Field Model Ro_surf (ini_masks_etc) tile     27 at iteration          1
(PID.TID 0000.0001) // CMIN =          1.000000000000000E+32
(PID.TID 0000.0001) // CMAX =         -1.000000000000000E+32
(PID.TID 0000.0001) // CINT =          0.000000000000000E+00
(PID.TID 0000.0001) // SYMBOLS (CMIN->CMAX): -abcdefghijklmnopqrstuvwxyz+
(PID.TID 0000.0001) //                  0.0: .
(PID.TID 0000.0001) // RANGE I (Lo:Hi:Step):( 207: 218:   1)
(PID.TID 0000.0001) // RANGE J (Lo:Hi:Step):(   6:  -1:  -1)
(PID.TID 0000.0001) // RANGE K (Lo:Hi:Step):(   1:   1:   1)
(PID.TID 0000.0001) // =======================================================
(PID.TID 0000.0001) Model domain too big to print to terminal - skipping I/O
(PID.TID 0000.0001) // =======================================================
(PID.TID 0000.0001) // Field Model Ro_surf (ini_masks_etc) tile     28 at iteration          1
(PID.TID 0000.0001) // CMIN =          1.000000000000000E+32
(PID.TID 0000.0001) // CMAX =         -1.000000000000000E+32
(PID.TID 0000.0001) // CINT =          0.000000000000000E+00
(PID.TID 0000.0001) // SYMBOLS (CMIN->CMAX): -abcdefghijklmnopqrstuvwxyz+
(PID.TID 0000.0001) //                  0.0: .
(PID.TID 0000.0001) // RANGE I (Lo:Hi:Step):( 215: 226:   1)
(PID.TID 0000.0001) // RANGE J (Lo:Hi:Step):(   6:  -1:  -1)
(PID.TID 0000.0001) // RANGE K (Lo:Hi:Step):(   1:   1:   1)
(PID.TID 0000.0001) // =======================================================
(PID.TID 0000.0001) Model domain too big to print to terminal - skipping I/O
(PID.TID 0000.0001) // =======================================================
(PID.TID 0000.0001) // Field Model Ro_surf (ini_masks_etc) tile     29 at iteration          1
(PID.TID 0000.0001) // CMIN =          1.000000000000000E+32
(PID.TID 0000.0001) // CMAX =         -1.000000000000000E+32
(PID.TID 0000.0001) // CINT =          0.000000000000000E+00
(PID.TID 0000.0001) // SYMBOLS (CMIN->CMAX): -abcdefghijklmnopqrstuvwxyz+
(PID.TID 0000.0001) //                  0.0: .
(PID.TID 0000.0001) // RANGE I (Lo:Hi:Step):( 223: 234:   1)
(PID.TID 0000.0001) // RANGE J (Lo:Hi:Step):(   6:  -1:  -1)
(PID.TID 0000.0001) // RANGE K (Lo:Hi:Step):(   1:   1:   1)
(PID.TID 0000.0001) // =======================================================
(PID.TID 0000.0001) Model domain too big to print to terminal - skipping I/O
(PID.TID 0000.0001) // =======================================================
(PID.TID 0000.0001) // Field Model Ro_surf (ini_masks_etc) tile     30 at iteration          1
(PID.TID 0000.0001) // CMIN =          1.000000000000000E+32
(PID.TID 0000.0001) // CMAX =         -1.000000000000000E+32
(PID.TID 0000.0001) // CINT =          0.000000000000000E+00
(PID.TID 0000.0001) // SYMBOLS (CMIN->CMAX): -abcdefghijklmnopqrstuvwxyz+
(PID.TID 0000.0001) //                  0.0: .
(PID.TID 0000.0001) // RANGE I (Lo:Hi:Step):( 231: 242:   1)
(PID.TID 0000.0001) // RANGE J (Lo:Hi:Step):(   6:  -1:  -1)
(PID.TID 0000.0001) // RANGE K (Lo:Hi:Step):(   1:   1:   1)
(PID.TID 0000.0001) // =======================================================
(PID.TID 0000.0001) Model domain too big to print to terminal - skipping I/O
(PID.TID 0000.0001) // =======================================================
(PID.TID 0000.0001) // Field Model Ro_surf (ini_masks_etc) tile     31 at iteration          1
(PID.TID 0000.0001) // CMIN =          1.000000000000000E+32
(PID.TID 0000.0001) // CMAX =         -1.000000000000000E+32
(PID.TID 0000.0001) // CINT =          0.000000000000000E+00
(PID.TID 0000.0001) // SYMBOLS (CMIN->CMAX): -abcdefghijklmnopqrstuvwxyz+
(PID.TID 0000.0001) //                  0.0: .
(PID.TID 0000.0001) // RANGE I (Lo:Hi:Step):( 239: 250:   1)
(PID.TID 0000.0001) // RANGE J (Lo:Hi:Step):(   6:  -1:  -1)
(PID.TID 0000.0001) // RANGE K (Lo:Hi:Step):(   1:   1:   1)
(PID.TID 0000.0001) // =======================================================
(PID.TID 0000.0001) Model domain too big to print to terminal - skipping I/O
(PID.TID 0000.0001) // =======================================================
(PID.TID 0000.0001) // Field Model Ro_surf (ini_masks_etc) tile     32 at iteration          1
(PID.TID 0000.0001) // CMIN =          1.000000000000000E+32
(PID.TID 0000.0001) // CMAX =         -1.000000000000000E+32
(PID.TID 0000.0001) // CINT =          0.000000000000000E+00
(PID.TID 0000.0001) // SYMBOLS (CMIN->CMAX): -abcdefghijklmnopqrstuvwxyz+
(PID.TID 0000.0001) //                  0.0: .
(PID.TID 0000.0001) // RANGE I (Lo:Hi:Step):( 247: 258:   1)
(PID.TID 0000.0001) // RANGE J (Lo:Hi:Step):(   6:  -1:  -1)
(PID.TID 0000.0001) // RANGE K (Lo:Hi:Step):(   1:   1:   1)
(PID.TID 0000.0001) // =======================================================
(PID.TID 0000.0001) Model domain too big to print to terminal - skipping I/O
(PID.TID 0000.0001) // =======================================================
(PID.TID 0000.0001) // Field Model Ro_surf (ini_masks_etc) tile     33 at iteration          1
(PID.TID 0000.0001) // CMIN =          1.000000000000000E+32
(PID.TID 0000.0001) // CMAX =         -1.000000000000000E+32
(PID.TID 0000.0001) // CINT =          0.000000000000000E+00
(PID.TID 0000.0001) // SYMBOLS (CMIN->CMAX): -abcdefghijklmnopqrstuvwxyz+
(PID.TID 0000.0001) //                  0.0: .
(PID.TID 0000.0001) // RANGE I (Lo:Hi:Step):( 255: 266:   1)
(PID.TID 0000.0001) // RANGE J (Lo:Hi:Step):(   6:  -1:  -1)
(PID.TID 0000.0001) // RANGE K (Lo:Hi:Step):(   1:   1:   1)
(PID.TID 0000.0001) // =======================================================
(PID.TID 0000.0001) Model domain too big to print to terminal - skipping I/O
(PID.TID 0000.0001) // =======================================================
(PID.TID 0000.0001) // Field Model Ro_surf (ini_masks_etc) tile     34 at iteration          1
(PID.TID 0000.0001) // CMIN =          1.000000000000000E+32
(PID.TID 0000.0001) // CMAX =         -1.000000000000000E+32
(PID.TID 0000.0001) // CINT =          0.000000000000000E+00
(PID.TID 0000.0001) // SYMBOLS (CMIN->CMAX): -abcdefghijklmnopqrstuvwxyz+
(PID.TID 0000.0001) //                  0.0: .
(PID.TID 0000.0001) // RANGE I (Lo:Hi:Step):( 263: 274:   1)
(PID.TID 0000.0001) // RANGE J (Lo:Hi:Step):(   6:  -1:  -1)
(PID.TID 0000.0001) // RANGE K (Lo:Hi:Step):(   1:   1:   1)
(PID.TID 0000.0001) // =======================================================
(PID.TID 0000.0001) Model domain too big to print to terminal - skipping I/O
(PID.TID 0000.0001) // =======================================================
(PID.TID 0000.0001) // Field Model Ro_surf (ini_masks_etc) tile     35 at iteration          1
(PID.TID 0000.0001) // CMIN =          1.000000000000000E+32
(PID.TID 0000.0001) // CMAX =         -1.000000000000000E+32
(PID.TID 0000.0001) // CINT =          0.000000000000000E+00
(PID.TID 0000.0001) // SYMBOLS (CMIN->CMAX): -abcdefghijklmnopqrstuvwxyz+
(PID.TID 0000.0001) //                  0.0: .
(PID.TID 0000.0001) // RANGE I (Lo:Hi:Step):( 271: 282:   1)
(PID.TID 0000.0001) // RANGE J (Lo:Hi:Step):(   6:  -1:  -1)
(PID.TID 0000.0001) // RANGE K (Lo:Hi:Step):(   1:   1:   1)
(PID.TID 0000.0001) // =======================================================
(PID.TID 0000.0001) Model domain too big to print to terminal - skipping I/O
(PID.TID 0000.0001) // =======================================================
(PID.TID 0000.0001) // Field Model Ro_surf (ini_masks_etc) tile     36 at iteration          1
(PID.TID 0000.0001) // CMIN =          1.000000000000000E+32
(PID.TID 0000.0001) // CMAX =         -1.000000000000000E+32
(PID.TID 0000.0001) // CINT =          0.000000000000000E+00
(PID.TID 0000.0001) // SYMBOLS (CMIN->CMAX): -abcdefghijklmnopqrstuvwxyz+
(PID.TID 0000.0001) //                  0.0: .
(PID.TID 0000.0001) // RANGE I (Lo:Hi:Step):( 279: 290:   1)
(PID.TID 0000.0001) // RANGE J (Lo:Hi:Step):(   6:  -1:  -1)
(PID.TID 0000.0001) // RANGE K (Lo:Hi:Step):(   1:   1:   1)
(PID.TID 0000.0001) // =======================================================
(PID.TID 0000.0001) Model domain too big to print to terminal - skipping I/O
(PID.TID 0000.0001) // =======================================================
(PID.TID 0000.0001) // Field Model Ro_surf (ini_masks_etc) tile     37 at iteration          1
(PID.TID 0000.0001) // CMIN =         -7.105427357601002E-15
(PID.TID 0000.0001) // CMAX =         -7.105427357601002E-15
(PID.TID 0000.0001) // CINT =          0.000000000000000E+00
(PID.TID 0000.0001) // SYMBOLS (CMIN->CMAX): -abcdefghijklmnopqrstuvwxyz+
(PID.TID 0000.0001) //                  0.0: .
(PID.TID 0000.0001) // RANGE I (Lo:Hi:Step):( 287: 298:   1)
(PID.TID 0000.0001) // RANGE J (Lo:Hi:Step):(   6:  -1:  -1)
(PID.TID 0000.0001) // RANGE K (Lo:Hi:Step):(   1:   1:   1)
(PID.TID 0000.0001) // =======================================================
(PID.TID 0000.0001) Model domain too big to print to terminal - skipping I/O
(PID.TID 0000.0001) // =======================================================
(PID.TID 0000.0001) // Field Model Ro_surf (ini_masks_etc) tile     38 at iteration          1
(PID.TID 0000.0001) // CMIN =          1.000000000000000E+32
(PID.TID 0000.0001) // CMAX =         -1.000000000000000E+32
(PID.TID 0000.0001) // CINT =          0.000000000000000E+00
(PID.TID 0000.0001) // SYMBOLS (CMIN->CMAX): -abcdefghijklmnopqrstuvwxyz+
(PID.TID 0000.0001) //                  0.0: .
(PID.TID 0000.0001) // RANGE I (Lo:Hi:Step):( 295: 306:   1)
(PID.TID 0000.0001) // RANGE J (Lo:Hi:Step):(   6:  -1:  -1)
(PID.TID 0000.0001) // RANGE K (Lo:Hi:Step):(   1:   1:   1)
(PID.TID 0000.0001) // =======================================================
(PID.TID 0000.0001) Model domain too big to print to terminal - skipping I/O
(PID.TID 0000.0001) // =======================================================
(PID.TID 0000.0001) // Field Model Ro_surf (ini_masks_etc) tile     39 at iteration          1
(PID.TID 0000.0001) // CMIN =          1.000000000000000E+32
(PID.TID 0000.0001) // CMAX =         -1.000000000000000E+32
(PID.TID 0000.0001) // CINT =          0.000000000000000E+00
(PID.TID 0000.0001) // SYMBOLS (CMIN->CMAX): -abcdefghijklmnopqrstuvwxyz+
(PID.TID 0000.0001) //                  0.0: .
(PID.TID 0000.0001) // RANGE I (Lo:Hi:Step):( 303: 314:   1)
(PID.TID 0000.0001) // RANGE J (Lo:Hi:Step):(   6:  -1:  -1)
(PID.TID 0000.0001) // RANGE K (Lo:Hi:Step):(   1:   1:   1)
(PID.TID 0000.0001) // =======================================================
(PID.TID 0000.0001) Model domain too big to print to terminal - skipping I/O
(PID.TID 0000.0001) // =======================================================
(PID.TID 0000.0001) // Field Model Ro_surf (ini_masks_etc) tile     40 at iteration          1
(PID.TID 0000.0001) // CMIN =          1.000000000000000E+32
(PID.TID 0000.0001) // CMAX =         -1.000000000000000E+32
(PID.TID 0000.0001) // CINT =          0.000000000000000E+00
(PID.TID 0000.0001) // SYMBOLS (CMIN->CMAX): -abcdefghijklmnopqrstuvwxyz+
(PID.TID 0000.0001) //                  0.0: .
(PID.TID 0000.0001) // RANGE I (Lo:Hi:Step):( 311: 322:   1)
(PID.TID 0000.0001) // RANGE J (Lo:Hi:Step):(   6:  -1:  -1)
(PID.TID 0000.0001) // RANGE K (Lo:Hi:Step):(   1:   1:   1)
(PID.TID 0000.0001) // =======================================================
(PID.TID 0000.0001) Model domain too big to print to terminal - skipping I/O
(PID.TID 0000.0001) // =======================================================
(PID.TID 0000.0001) // Field Model Ro_surf (ini_masks_etc) tile     41 at iteration          1
(PID.TID 0000.0001) // CMIN =         -7.105427357601002E-15
(PID.TID 0000.0001) // CMAX =         -7.105427357601002E-15
(PID.TID 0000.0001) // CINT =          0.000000000000000E+00
(PID.TID 0000.0001) // SYMBOLS (CMIN->CMAX): -abcdefghijklmnopqrstuvwxyz+
(PID.TID 0000.0001) //                  0.0: .
(PID.TID 0000.0001) // RANGE I (Lo:Hi:Step):( 319: 330:   1)
(PID.TID 0000.0001) // RANGE J (Lo:Hi:Step):(   6:  -1:  -1)
(PID.TID 0000.0001) // RANGE K (Lo:Hi:Step):(   1:   1:   1)
(PID.TID 0000.0001) // =======================================================
(PID.TID 0000.0001) Model domain too big to print to terminal - skipping I/O
(PID.TID 0000.0001) // =======================================================
(PID.TID 0000.0001) // Field Model Ro_surf (ini_masks_etc) tile     42 at iteration          1
(PID.TID 0000.0001) // CMIN =          1.000000000000000E+32
(PID.TID 0000.0001) // CMAX =         -1.000000000000000E+32
(PID.TID 0000.0001) // CINT =          0.000000000000000E+00
(PID.TID 0000.0001) // SYMBOLS (CMIN->CMAX): -abcdefghijklmnopqrstuvwxyz+
(PID.TID 0000.0001) //                  0.0: .
(PID.TID 0000.0001) // RANGE I (Lo:Hi:Step):( 327: 338:   1)
(PID.TID 0000.0001) // RANGE J (Lo:Hi:Step):(   6:  -1:  -1)
(PID.TID 0000.0001) // RANGE K (Lo:Hi:Step):(   1:   1:   1)
(PID.TID 0000.0001) // =======================================================
(PID.TID 0000.0001) Model domain too big to print to terminal - skipping I/O
(PID.TID 0000.0001) // =======================================================
(PID.TID 0000.0001) // Field Model Ro_surf (ini_masks_etc) tile     43 at iteration          1
(PID.TID 0000.0001) // CMIN =          1.000000000000000E+32
(PID.TID 0000.0001) // CMAX =         -1.000000000000000E+32
(PID.TID 0000.0001) // CINT =          0.000000000000000E+00
(PID.TID 0000.0001) // SYMBOLS (CMIN->CMAX): -abcdefghijklmnopqrstuvwxyz+
(PID.TID 0000.0001) //                  0.0: .
(PID.TID 0000.0001) // RANGE I (Lo:Hi:Step):( 335: 346:   1)
(PID.TID 0000.0001) // RANGE J (Lo:Hi:Step):(   6:  -1:  -1)
(PID.TID 0000.0001) // RANGE K (Lo:Hi:Step):(   1:   1:   1)
(PID.TID 0000.0001) // =======================================================
(PID.TID 0000.0001) Model domain too big to print to terminal - skipping I/O
(PID.TID 0000.0001) // =======================================================
(PID.TID 0000.0001) // Field Model Ro_surf (ini_masks_etc) tile     44 at iteration          1
(PID.TID 0000.0001) // CMIN =          1.000000000000000E+32
(PID.TID 0000.0001) // CMAX =         -1.000000000000000E+32
(PID.TID 0000.0001) // CINT =          0.000000000000000E+00
(PID.TID 0000.0001) // SYMBOLS (CMIN->CMAX): -abcdefghijklmnopqrstuvwxyz+
(PID.TID 0000.0001) //                  0.0: .
(PID.TID 0000.0001) // RANGE I (Lo:Hi:Step):( 343: 354:   1)
(PID.TID 0000.0001) // RANGE J (Lo:Hi:Step):(   6:  -1:  -1)
(PID.TID 0000.0001) // RANGE K (Lo:Hi:Step):(   1:   1:   1)
(PID.TID 0000.0001) // =======================================================
(PID.TID 0000.0001) Model domain too big to print to terminal - skipping I/O
(PID.TID 0000.0001) // =======================================================
(PID.TID 0000.0001) // Field Model Ro_surf (ini_masks_etc) tile     45 at iteration          1
(PID.TID 0000.0001) // CMIN =          1.000000000000000E+32
(PID.TID 0000.0001) // CMAX =         -1.000000000000000E+32
(PID.TID 0000.0001) // CINT =          0.000000000000000E+00
(PID.TID 0000.0001) // SYMBOLS (CMIN->CMAX): -abcdefghijklmnopqrstuvwxyz+
(PID.TID 0000.0001) //                  0.0: .
(PID.TID 0000.0001) // RANGE I (Lo:Hi:Step):( 351: 362:   1)
(PID.TID 0000.0001) // RANGE J (Lo:Hi:Step):(   6:  -1:  -1)
(PID.TID 0000.0001) // RANGE K (Lo:Hi:Step):(   1:   1:   1)
(PID.TID 0000.0001) // =======================================================
(PID.TID 0000.0001) Model domain too big to print to terminal - skipping I/O
(PID.TID 0000.0001) // =======================================================
(PID.TID 0000.0001) // Field Model Ro_surf (ini_masks_etc) tile     46 at iteration          1
(PID.TID 0000.0001) // CMIN =          1.000000000000000E+32
(PID.TID 0000.0001) // CMAX =         -1.000000000000000E+32
(PID.TID 0000.0001) // CINT =          0.000000000000000E+00
(PID.TID 0000.0001) // SYMBOLS (CMIN->CMAX): -abcdefghijklmnopqrstuvwxyz+
(PID.TID 0000.0001) //                  0.0: .
(PID.TID 0000.0001) // RANGE I (Lo:Hi:Step):( 359: 370:   1)
(PID.TID 0000.0001) // RANGE J (Lo:Hi:Step):(   6:  -1:  -1)
(PID.TID 0000.0001) // RANGE K (Lo:Hi:Step):(   1:   1:   1)
(PID.TID 0000.0001) // =======================================================
(PID.TID 0000.0001) Model domain too big to print to terminal - skipping I/O
(PID.TID 0000.0001) // =======================================================
(PID.TID 0000.0001) // Field Model Ro_surf (ini_masks_etc) tile     47 at iteration          1
(PID.TID 0000.0001) // CMIN =          1.000000000000000E+32
(PID.TID 0000.0001) // CMAX =         -1.000000000000000E+32
(PID.TID 0000.0001) // CINT =          0.000000000000000E+00
(PID.TID 0000.0001) // SYMBOLS (CMIN->CMAX): -abcdefghijklmnopqrstuvwxyz+
(PID.TID 0000.0001) //                  0.0: .
(PID.TID 0000.0001) // RANGE I (Lo:Hi:Step):( 367: 378:   1)
(PID.TID 0000.0001) // RANGE J (Lo:Hi:Step):(   6:  -1:  -1)
(PID.TID 0000.0001) // RANGE K (Lo:Hi:Step):(   1:   1:   1)
(PID.TID 0000.0001) // =======================================================
(PID.TID 0000.0001) Model domain too big to print to terminal - skipping I/O
(PID.TID 0000.0001) // =======================================================
(PID.TID 0000.0001) // Field Model Ro_surf (ini_masks_etc) tile     48 at iteration          1
(PID.TID 0000.0001) // CMIN =          1.000000000000000E+32
(PID.TID 0000.0001) // CMAX =         -1.000000000000000E+32
(PID.TID 0000.0001) // CINT =          0.000000000000000E+00
(PID.TID 0000.0001) // SYMBOLS (CMIN->CMAX): -abcdefghijklmnopqrstuvwxyz+
(PID.TID 0000.0001) //                  0.0: .
(PID.TID 0000.0001) // RANGE I (Lo:Hi:Step):( 375: 386:   1)
(PID.TID 0000.0001) // RANGE J (Lo:Hi:Step):(   6:  -1:  -1)
(PID.TID 0000.0001) // RANGE K (Lo:Hi:Step):(   1:   1:   1)
(PID.TID 0000.0001) // =======================================================
(PID.TID 0000.0001) Model domain too big to print to terminal - skipping I/O
(PID.TID 0000.0001) // =======================================================
(PID.TID 0000.0001) // Field Model Ro_surf (ini_masks_etc) tile     49 at iteration          1
(PID.TID 0000.0001) // CMIN =          1.000000000000000E+32
(PID.TID 0000.0001) // CMAX =         -1.000000000000000E+32
(PID.TID 0000.0001) // CINT =          0.000000000000000E+00
(PID.TID 0000.0001) // SYMBOLS (CMIN->CMAX): -abcdefghijklmnopqrstuvwxyz+
(PID.TID 0000.0001) //                  0.0: .
(PID.TID 0000.0001) // RANGE I (Lo:Hi:Step):( 383: 394:   1)
(PID.TID 0000.0001) // RANGE J (Lo:Hi:Step):(   6:  -1:  -1)
(PID.TID 0000.0001) // RANGE K (Lo:Hi:Step):(   1:   1:   1)
(PID.TID 0000.0001) // =======================================================
(PID.TID 0000.0001) Model domain too big to print to terminal - skipping I/O
(PID.TID 0000.0001) // =======================================================
(PID.TID 0000.0001) // Field Model Ro_surf (ini_masks_etc) tile     50 at iteration          1
(PID.TID 0000.0001) // CMIN =          1.000000000000000E+32
(PID.TID 0000.0001) // CMAX =         -1.000000000000000E+32
(PID.TID 0000.0001) // CINT =          0.000000000000000E+00
(PID.TID 0000.0001) // SYMBOLS (CMIN->CMAX): -abcdefghijklmnopqrstuvwxyz+
(PID.TID 0000.0001) //                  0.0: .
(PID.TID 0000.0001) // RANGE I (Lo:Hi:Step):( 391: 402:   1)
(PID.TID 0000.0001) // RANGE J (Lo:Hi:Step):(   6:  -1:  -1)
(PID.TID 0000.0001) // RANGE K (Lo:Hi:Step):(   1:   1:   1)
(PID.TID 0000.0001) // =======================================================
(PID.TID 0000.0001) Model domain too big to print to terminal - skipping I/O
(PID.TID 0000.0001) // =======================================================
(PID.TID 0000.0001) // Field Model Ro_surf (ini_masks_etc) tile     51 at iteration          1
(PID.TID 0000.0001) // CMIN =         -7.105427357601002E-15
(PID.TID 0000.0001) // CMAX =         -7.105427357601002E-15
(PID.TID 0000.0001) // CINT =          0.000000000000000E+00
(PID.TID 0000.0001) // SYMBOLS (CMIN->CMAX): -abcdefghijklmnopqrstuvwxyz+
(PID.TID 0000.0001) //                  0.0: .
(PID.TID 0000.0001) // RANGE I (Lo:Hi:Step):( 399: 410:   1)
(PID.TID 0000.0001) // RANGE J (Lo:Hi:Step):(   6:  -1:  -1)
(PID.TID 0000.0001) // RANGE K (Lo:Hi:Step):(   1:   1:   1)
(PID.TID 0000.0001) // =======================================================
(PID.TID 0000.0001) Model domain too big to print to terminal - skipping I/O
(PID.TID 0000.0001) // =======================================================
(PID.TID 0000.0001) // Field Model Ro_surf (ini_masks_etc) tile     52 at iteration          1
(PID.TID 0000.0001) // CMIN =         -7.105427357601002E-15
(PID.TID 0000.0001) // CMAX =         -7.105427357601002E-15
(PID.TID 0000.0001) // CINT =          0.000000000000000E+00
(PID.TID 0000.0001) // SYMBOLS (CMIN->CMAX): -abcdefghijklmnopqrstuvwxyz+
(PID.TID 0000.0001) //                  0.0: .
(PID.TID 0000.0001) // RANGE I (Lo:Hi:Step):( 407: 418:   1)
(PID.TID 0000.0001) // RANGE J (Lo:Hi:Step):(   6:  -1:  -1)
(PID.TID 0000.0001) // RANGE K (Lo:Hi:Step):(   1:   1:   1)
(PID.TID 0000.0001) // =======================================================
(PID.TID 0000.0001) Model domain too big to print to terminal - skipping I/O
(PID.TID 0000.0001) // =======================================================
(PID.TID 0000.0001) // Field Model Ro_surf (ini_masks_etc) tile     53 at iteration          1
(PID.TID 0000.0001) // CMIN =          1.000000000000000E+32
(PID.TID 0000.0001) // CMAX =         -1.000000000000000E+32
(PID.TID 0000.0001) // CINT =          0.000000000000000E+00
(PID.TID 0000.0001) // SYMBOLS (CMIN->CMAX): -abcdefghijklmnopqrstuvwxyz+
(PID.TID 0000.0001) //                  0.0: .
(PID.TID 0000.0001) // RANGE I (Lo:Hi:Step):( 415: 426:   1)
(PID.TID 0000.0001) // RANGE J (Lo:Hi:Step):(   6:  -1:  -1)
(PID.TID 0000.0001) // RANGE K (Lo:Hi:Step):(   1:   1:   1)
(PID.TID 0000.0001) // =======================================================
(PID.TID 0000.0001) Model domain too big to print to terminal - skipping I/O
(PID.TID 0000.0001) // =======================================================
(PID.TID 0000.0001) // Field Model Ro_surf (ini_masks_etc) tile     54 at iteration          1
(PID.TID 0000.0001) // CMIN =          1.000000000000000E+32
(PID.TID 0000.0001) // CMAX =         -1.000000000000000E+32
(PID.TID 0000.0001) // CINT =          0.000000000000000E+00
(PID.TID 0000.0001) // SYMBOLS (CMIN->CMAX): -abcdefghijklmnopqrstuvwxyz+
(PID.TID 0000.0001) //                  0.0: .
(PID.TID 0000.0001) // RANGE I (Lo:Hi:Step):( 423: 434:   1)
(PID.TID 0000.0001) // RANGE J (Lo:Hi:Step):(   6:  -1:  -1)
(PID.TID 0000.0001) // RANGE K (Lo:Hi:Step):(   1:   1:   1)
(PID.TID 0000.0001) // =======================================================
(PID.TID 0000.0001) Model domain too big to print to terminal - skipping I/O
(PID.TID 0000.0001) // =======================================================
(PID.TID 0000.0001) // Field Model Ro_surf (ini_masks_etc) tile     55 at iteration          1
(PID.TID 0000.0001) // CMIN =         -7.105427357601002E-15
(PID.TID 0000.0001) // CMAX =         -7.105427357601002E-15
(PID.TID 0000.0001) // CINT =          0.000000000000000E+00
(PID.TID 0000.0001) // SYMBOLS (CMIN->CMAX): -abcdefghijklmnopqrstuvwxyz+
(PID.TID 0000.0001) //                  0.0: .
(PID.TID 0000.0001) // RANGE I (Lo:Hi:Step):( 431: 442:   1)
(PID.TID 0000.0001) // RANGE J (Lo:Hi:Step):(   6:  -1:  -1)
(PID.TID 0000.0001) // RANGE K (Lo:Hi:Step):(   1:   1:   1)
(PID.TID 0000.0001) // =======================================================
(PID.TID 0000.0001) Model domain too big to print to terminal - skipping I/O
(PID.TID 0000.0001) // =======================================================
(PID.TID 0000.0001) // Field Model Ro_surf (ini_masks_etc) tile     56 at iteration          1
(PID.TID 0000.0001) // CMIN =         -7.105427357601002E-15
(PID.TID 0000.0001) // CMAX =         -7.105427357601002E-15
(PID.TID 0000.0001) // CINT =          0.000000000000000E+00
(PID.TID 0000.0001) // SYMBOLS (CMIN->CMAX): -abcdefghijklmnopqrstuvwxyz+
(PID.TID 0000.0001) //                  0.0: .
(PID.TID 0000.0001) // RANGE I (Lo:Hi:Step):( 439: 450:   1)
(PID.TID 0000.0001) // RANGE J (Lo:Hi:Step):(   6:  -1:  -1)
(PID.TID 0000.0001) // RANGE K (Lo:Hi:Step):(   1:   1:   1)
(PID.TID 0000.0001) // =======================================================
(PID.TID 0000.0001) Model domain too big to print to terminal - skipping I/O
(PID.TID 0000.0001) // =======================================================
(PID.TID 0000.0001) // Field Model Ro_surf (ini_masks_etc) tile     57 at iteration          1
(PID.TID 0000.0001) // CMIN =          1.000000000000000E+32
(PID.TID 0000.0001) // CMAX =         -1.000000000000000E+32
(PID.TID 0000.0001) // CINT =          0.000000000000000E+00
(PID.TID 0000.0001) // SYMBOLS (CMIN->CMAX): -abcdefghijklmnopqrstuvwxyz+
(PID.TID 0000.0001) //                  0.0: .
(PID.TID 0000.0001) // RANGE I (Lo:Hi:Step):( 447: 458:   1)
(PID.TID 0000.0001) // RANGE J (Lo:Hi:Step):(   6:  -1:  -1)
(PID.TID 0000.0001) // RANGE K (Lo:Hi:Step):(   1:   1:   1)
(PID.TID 0000.0001) // =======================================================
(PID.TID 0000.0001) Model domain too big to print to terminal - skipping I/O
(PID.TID 0000.0001) // =======================================================
(PID.TID 0000.0001) // Field Model Ro_surf (ini_masks_etc) tile     58 at iteration          1
(PID.TID 0000.0001) // CMIN =          1.000000000000000E+32
(PID.TID 0000.0001) // CMAX =         -1.000000000000000E+32
(PID.TID 0000.0001) // CINT =          0.000000000000000E+00
(PID.TID 0000.0001) // SYMBOLS (CMIN->CMAX): -abcdefghijklmnopqrstuvwxyz+
(PID.TID 0000.0001) //                  0.0: .
(PID.TID 0000.0001) // RANGE I (Lo:Hi:Step):( 455: 466:   1)
(PID.TID 0000.0001) // RANGE J (Lo:Hi:Step):(   6:  -1:  -1)
(PID.TID 0000.0001) // RANGE K (Lo:Hi:Step):(   1:   1:   1)
(PID.TID 0000.0001) // =======================================================
(PID.TID 0000.0001) Model domain too big to print to terminal - skipping I/O
(PID.TID 0000.0001) // =======================================================
(PID.TID 0000.0001) // Field Model Ro_surf (ini_masks_etc) tile     59 at iteration          1
(PID.TID 0000.0001) // CMIN =          1.000000000000000E+32
(PID.TID 0000.0001) // CMAX =         -1.000000000000000E+32
(PID.TID 0000.0001) // CINT =          0.000000000000000E+00
(PID.TID 0000.0001) // SYMBOLS (CMIN->CMAX): -abcdefghijklmnopqrstuvwxyz+
(PID.TID 0000.0001) //                  0.0: .
(PID.TID 0000.0001) // RANGE I (Lo:Hi:Step):( 463: 474:   1)
(PID.TID 0000.0001) // RANGE J (Lo:Hi:Step):(   6:  -1:  -1)
(PID.TID 0000.0001) // RANGE K (Lo:Hi:Step):(   1:   1:   1)
(PID.TID 0000.0001) // =======================================================
(PID.TID 0000.0001) Model domain too big to print to terminal - skipping I/O
(PID.TID 0000.0001) // =======================================================
(PID.TID 0000.0001) // Field Model Ro_surf (ini_masks_etc) tile     60 at iteration          1
(PID.TID 0000.0001) // CMIN =         -7.105427357601002E-15
(PID.TID 0000.0001) // CMAX =         -7.105427357601002E-15
(PID.TID 0000.0001) // CINT =          0.000000000000000E+00
(PID.TID 0000.0001) // SYMBOLS (CMIN->CMAX): -abcdefghijklmnopqrstuvwxyz+
(PID.TID 0000.0001) //                  0.0: .
(PID.TID 0000.0001) // RANGE I (Lo:Hi:Step):( 471: 482:   1)
(PID.TID 0000.0001) // RANGE J (Lo:Hi:Step):(   6:  -1:  -1)
(PID.TID 0000.0001) // RANGE K (Lo:Hi:Step):(   1:   1:   1)
(PID.TID 0000.0001) // =======================================================
(PID.TID 0000.0001) Model domain too big to print to terminal - skipping I/O
(PID.TID 0000.0001) // =======================================================
(PID.TID 0000.0001) // Field Model Ro_surf (ini_masks_etc) tile     61 at iteration          1
(PID.TID 0000.0001) // CMIN =          1.000000000000000E+32
(PID.TID 0000.0001) // CMAX =         -1.000000000000000E+32
(PID.TID 0000.0001) // CINT =          0.000000000000000E+00
(PID.TID 0000.0001) // SYMBOLS (CMIN->CMAX): -abcdefghijklmnopqrstuvwxyz+
(PID.TID 0000.0001) //                  0.0: .
(PID.TID 0000.0001) // RANGE I (Lo:Hi:Step):( 479: 490:   1)
(PID.TID 0000.0001) // RANGE J (Lo:Hi:Step):(   6:  -1:  -1)
(PID.TID 0000.0001) // RANGE K (Lo:Hi:Step):(   1:   1:   1)
(PID.TID 0000.0001) // =======================================================
(PID.TID 0000.0001) Model domain too big to print to terminal - skipping I/O
(PID.TID 0000.0001) // =======================================================
(PID.TID 0000.0001) // Field Model Ro_surf (ini_masks_etc) tile     62 at iteration          1
(PID.TID 0000.0001) // CMIN =          1.000000000000000E+32
(PID.TID 0000.0001) // CMAX =         -1.000000000000000E+32
(PID.TID 0000.0001) // CINT =          0.000000000000000E+00
(PID.TID 0000.0001) // SYMBOLS (CMIN->CMAX): -abcdefghijklmnopqrstuvwxyz+
(PID.TID 0000.0001) //                  0.0: .
(PID.TID 0000.0001) // RANGE I (Lo:Hi:Step):( 487: 498:   1)
(PID.TID 0000.0001) // RANGE J (Lo:Hi:Step):(   6:  -1:  -1)
(PID.TID 0000.0001) // RANGE K (Lo:Hi:Step):(   1:   1:   1)
(PID.TID 0000.0001) // =======================================================
(PID.TID 0000.0001) Model domain too big to print to terminal - skipping I/O
(PID.TID 0000.0001) // =======================================================
(PID.TID 0000.0001) // Field Model Ro_surf (ini_masks_etc) tile     63 at iteration          1
(PID.TID 0000.0001) // CMIN =          1.000000000000000E+32
(PID.TID 0000.0001) // CMAX =         -1.000000000000000E+32
(PID.TID 0000.0001) // CINT =          0.000000000000000E+00
(PID.TID 0000.0001) // SYMBOLS (CMIN->CMAX): -abcdefghijklmnopqrstuvwxyz+
(PID.TID 0000.0001) //                  0.0: .
(PID.TID 0000.0001) // RANGE I (Lo:Hi:Step):( 495: 506:   1)
(PID.TID 0000.0001) // RANGE J (Lo:Hi:Step):(   6:  -1:  -1)
(PID.TID 0000.0001) // RANGE K (Lo:Hi:Step):(   1:   1:   1)
(PID.TID 0000.0001) // =======================================================
(PID.TID 0000.0001) Model domain too big to print to terminal - skipping I/O
(PID.TID 0000.0001) // =======================================================
(PID.TID 0000.0001) // Field Model Ro_surf (ini_masks_etc) tile     64 at iteration          1
(PID.TID 0000.0001) // CMIN =         -7.105427357601002E-15
(PID.TID 0000.0001) // CMAX =         -7.105427357601002E-15
(PID.TID 0000.0001) // CINT =          0.000000000000000E+00
(PID.TID 0000.0001) // SYMBOLS (CMIN->CMAX): -abcdefghijklmnopqrstuvwxyz+
(PID.TID 0000.0001) //                  0.0: .
(PID.TID 0000.0001) // RANGE I (Lo:Hi:Step):( 503: 514:   1)
(PID.TID 0000.0001) // RANGE J (Lo:Hi:Step):(   6:  -1:  -1)
(PID.TID 0000.0001) // RANGE K (Lo:Hi:Step):(   1:   1:   1)
(PID.TID 0000.0001) // =======================================================
(PID.TID 0000.0001) Model domain too big to print to terminal - skipping I/O
(PID.TID 0000.0001) // =======================================================
(PID.TID 0000.0001) // Field Model Ro_surf (ini_masks_etc) tile     65 at iteration          1
(PID.TID 0000.0001) // CMIN =          1.000000000000000E+32
(PID.TID 0000.0001) // CMAX =         -1.000000000000000E+32
(PID.TID 0000.0001) // CINT =          0.000000000000000E+00
(PID.TID 0000.0001) // SYMBOLS (CMIN->CMAX): -abcdefghijklmnopqrstuvwxyz+
(PID.TID 0000.0001) //                  0.0: .
(PID.TID 0000.0001) // RANGE I (Lo:Hi:Step):( 511: 522:   1)
(PID.TID 0000.0001) // RANGE J (Lo:Hi:Step):(   6:  -1:  -1)
(PID.TID 0000.0001) // RANGE K (Lo:Hi:Step):(   1:   1:   1)
(PID.TID 0000.0001) // =======================================================
(PID.TID 0000.0001) Model domain too big to print to terminal - skipping I/O
(PID.TID 0000.0001) // =======================================================
(PID.TID 0000.0001) // Field Model Ro_surf (ini_masks_etc) tile     66 at iteration          1
(PID.TID 0000.0001) // CMIN =          1.000000000000000E+32
(PID.TID 0000.0001) // CMAX =         -1.000000000000000E+32
(PID.TID 0000.0001) // CINT =          0.000000000000000E+00
(PID.TID 0000.0001) // SYMBOLS (CMIN->CMAX): -abcdefghijklmnopqrstuvwxyz+
(PID.TID 0000.0001) //                  0.0: .
(PID.TID 0000.0001) // RANGE I (Lo:Hi:Step):( 519: 530:   1)
(PID.TID 0000.0001) // RANGE J (Lo:Hi:Step):(   6:  -1:  -1)
(PID.TID 0000.0001) // RANGE K (Lo:Hi:Step):(   1:   1:   1)
(PID.TID 0000.0001) // =======================================================
(PID.TID 0000.0001) Model domain too big to print to terminal - skipping I/O
(PID.TID 0000.0001) // =======================================================
(PID.TID 0000.0001) // Field Model Ro_surf (ini_masks_etc) tile     67 at iteration          1
(PID.TID 0000.0001) // CMIN =          1.000000000000000E+32
(PID.TID 0000.0001) // CMAX =         -1.000000000000000E+32
(PID.TID 0000.0001) // CINT =          0.000000000000000E+00
(PID.TID 0000.0001) // SYMBOLS (CMIN->CMAX): -abcdefghijklmnopqrstuvwxyz+
(PID.TID 0000.0001) //                  0.0: .
(PID.TID 0000.0001) // RANGE I (Lo:Hi:Step):( 527: 538:   1)
(PID.TID 0000.0001) // RANGE J (Lo:Hi:Step):(   6:  -1:  -1)
(PID.TID 0000.0001) // RANGE K (Lo:Hi:Step):(   1:   1:   1)
(PID.TID 0000.0001) // =======================================================
(PID.TID 0000.0001) Model domain too big to print to terminal - skipping I/O
(PID.TID 0000.0001) // =======================================================
(PID.TID 0000.0001) // Field Model Ro_surf (ini_masks_etc) tile     68 at iteration          1
(PID.TID 0000.0001) // CMIN =          1.000000000000000E+32
(PID.TID 0000.0001) // CMAX =         -1.000000000000000E+32
(PID.TID 0000.0001) // CINT =          0.000000000000000E+00
(PID.TID 0000.0001) // SYMBOLS (CMIN->CMAX): -abcdefghijklmnopqrstuvwxyz+
(PID.TID 0000.0001) //                  0.0: .
(PID.TID 0000.0001) // RANGE I (Lo:Hi:Step):( 535: 546:   1)
(PID.TID 0000.0001) // RANGE J (Lo:Hi:Step):(   6:  -1:  -1)
(PID.TID 0000.0001) // RANGE K (Lo:Hi:Step):(   1:   1:   1)
(PID.TID 0000.0001) // =======================================================
(PID.TID 0000.0001) Model domain too big to print to terminal - skipping I/O
(PID.TID 0000.0001) // =======================================================
(PID.TID 0000.0001) // Field Model Ro_surf (ini_masks_etc) tile     69 at iteration          1
(PID.TID 0000.0001) // CMIN =          1.000000000000000E+32
(PID.TID 0000.0001) // CMAX =         -1.000000000000000E+32
(PID.TID 0000.0001) // CINT =          0.000000000000000E+00
(PID.TID 0000.0001) // SYMBOLS (CMIN->CMAX): -abcdefghijklmnopqrstuvwxyz+
(PID.TID 0000.0001) //                  0.0: .
(PID.TID 0000.0001) // RANGE I (Lo:Hi:Step):( 543: 554:   1)
(PID.TID 0000.0001) // RANGE J (Lo:Hi:Step):(   6:  -1:  -1)
(PID.TID 0000.0001) // RANGE K (Lo:Hi:Step):(   1:   1:   1)
(PID.TID 0000.0001) // =======================================================
(PID.TID 0000.0001) Model domain too big to print to terminal - skipping I/O
(PID.TID 0000.0001) // =======================================================
(PID.TID 0000.0001) // Field Model Ro_surf (ini_masks_etc) tile     70 at iteration          1
(PID.TID 0000.0001) // CMIN =          1.000000000000000E+32
(PID.TID 0000.0001) // CMAX =         -1.000000000000000E+32
(PID.TID 0000.0001) // CINT =          0.000000000000000E+00
(PID.TID 0000.0001) // SYMBOLS (CMIN->CMAX): -abcdefghijklmnopqrstuvwxyz+
(PID.TID 0000.0001) //                  0.0: .
(PID.TID 0000.0001) // RANGE I (Lo:Hi:Step):( 551: 562:   1)
(PID.TID 0000.0001) // RANGE J (Lo:Hi:Step):(   6:  -1:  -1)
(PID.TID 0000.0001) // RANGE K (Lo:Hi:Step):(   1:   1:   1)
(PID.TID 0000.0001) // =======================================================
(PID.TID 0000.0001) Model domain too big to print to terminal - skipping I/O
(PID.TID 0000.0001) // =======================================================
(PID.TID 0000.0001) // Field Model Ro_surf (ini_masks_etc) tile     71 at iteration          1
(PID.TID 0000.0001) // CMIN =          1.000000000000000E+32
(PID.TID 0000.0001) // CMAX =         -1.000000000000000E+32
(PID.TID 0000.0001) // CINT =          0.000000000000000E+00
(PID.TID 0000.0001) // SYMBOLS (CMIN->CMAX): -abcdefghijklmnopqrstuvwxyz+
(PID.TID 0000.0001) //                  0.0: .
(PID.TID 0000.0001) // RANGE I (Lo:Hi:Step):( 559: 570:   1)
(PID.TID 0000.0001) // RANGE J (Lo:Hi:Step):(   6:  -1:  -1)
(PID.TID 0000.0001) // RANGE K (Lo:Hi:Step):(   1:   1:   1)
(PID.TID 0000.0001) // =======================================================
(PID.TID 0000.0001) Model domain too big to print to terminal - skipping I/O
(PID.TID 0000.0001) // =======================================================
(PID.TID 0000.0001) // Field Model Ro_surf (ini_masks_etc) tile     72 at iteration          1
(PID.TID 0000.0001) // CMIN =          1.000000000000000E+32
(PID.TID 0000.0001) // CMAX =         -1.000000000000000E+32
(PID.TID 0000.0001) // CINT =          0.000000000000000E+00
(PID.TID 0000.0001) // SYMBOLS (CMIN->CMAX): -abcdefghijklmnopqrstuvwxyz+
(PID.TID 0000.0001) //                  0.0: .
(PID.TID 0000.0001) // RANGE I (Lo:Hi:Step):( 567: 578:   1)
(PID.TID 0000.0001) // RANGE J (Lo:Hi:Step):(   6:  -1:  -1)
(PID.TID 0000.0001) // RANGE K (Lo:Hi:Step):(   1:   1:   1)
(PID.TID 0000.0001) // =======================================================
(PID.TID 0000.0001) Model domain too big to print to terminal - skipping I/O
(PID.TID 0000.0001) // =======================================================
(PID.TID 0000.0001) // Field Model Ro_surf (ini_masks_etc) tile     73 at iteration          1
(PID.TID 0000.0001) // CMIN =          1.000000000000000E+32
(PID.TID 0000.0001) // CMAX =         -1.000000000000000E+32
(PID.TID 0000.0001) // CINT =          0.000000000000000E+00
(PID.TID 0000.0001) // SYMBOLS (CMIN->CMAX): -abcdefghijklmnopqrstuvwxyz+
(PID.TID 0000.0001) //                  0.0: .
(PID.TID 0000.0001) // RANGE I (Lo:Hi:Step):( 575: 586:   1)
(PID.TID 0000.0001) // RANGE J (Lo:Hi:Step):(   6:  -1:  -1)
(PID.TID 0000.0001) // RANGE K (Lo:Hi:Step):(   1:   1:   1)
(PID.TID 0000.0001) // =======================================================
(PID.TID 0000.0001) Model domain too big to print to terminal - skipping I/O
(PID.TID 0000.0001) // =======================================================
(PID.TID 0000.0001) // Field Model Ro_surf (ini_masks_etc) tile     74 at iteration          1
(PID.TID 0000.0001) // CMIN =          1.000000000000000E+32
(PID.TID 0000.0001) // CMAX =         -1.000000000000000E+32
(PID.TID 0000.0001) // CINT =          0.000000000000000E+00
(PID.TID 0000.0001) // SYMBOLS (CMIN->CMAX): -abcdefghijklmnopqrstuvwxyz+
(PID.TID 0000.0001) //                  0.0: .
(PID.TID 0000.0001) // RANGE I (Lo:Hi:Step):( 583: 594:   1)
(PID.TID 0000.0001) // RANGE J (Lo:Hi:Step):(   6:  -1:  -1)
(PID.TID 0000.0001) // RANGE K (Lo:Hi:Step):(   1:   1:   1)
(PID.TID 0000.0001) // =======================================================
(PID.TID 0000.0001) Model domain too big to print to terminal - skipping I/O
(PID.TID 0000.0001) // =======================================================
(PID.TID 0000.0001) // Field Model Ro_surf (ini_masks_etc) tile     75 at iteration          1
(PID.TID 0000.0001) // CMIN =          1.000000000000000E+32
(PID.TID 0000.0001) // CMAX =         -1.000000000000000E+32
(PID.TID 0000.0001) // CINT =          0.000000000000000E+00
(PID.TID 0000.0001) // SYMBOLS (CMIN->CMAX): -abcdefghijklmnopqrstuvwxyz+
(PID.TID 0000.0001) //                  0.0: .
(PID.TID 0000.0001) // RANGE I (Lo:Hi:Step):( 591: 602:   1)
(PID.TID 0000.0001) // RANGE J (Lo:Hi:Step):(   6:  -1:  -1)
(PID.TID 0000.0001) // RANGE K (Lo:Hi:Step):(   1:   1:   1)
(PID.TID 0000.0001) // =======================================================
(PID.TID 0000.0001) Model domain too big to print to terminal - skipping I/O
(PID.TID 0000.0001) // =======================================================
(PID.TID 0000.0001) // Field Model Ro_surf (ini_masks_etc) tile     76 at iteration          1
(PID.TID 0000.0001) // CMIN =          1.000000000000000E+32
(PID.TID 0000.0001) // CMAX =         -1.000000000000000E+32
(PID.TID 0000.0001) // CINT =          0.000000000000000E+00
(PID.TID 0000.0001) // SYMBOLS (CMIN->CMAX): -abcdefghijklmnopqrstuvwxyz+
(PID.TID 0000.0001) //                  0.0: .
(PID.TID 0000.0001) // RANGE I (Lo:Hi:Step):( 599: 610:   1)
(PID.TID 0000.0001) // RANGE J (Lo:Hi:Step):(   6:  -1:  -1)
(PID.TID 0000.0001) // RANGE K (Lo:Hi:Step):(   1:   1:   1)
(PID.TID 0000.0001) // =======================================================
(PID.TID 0000.0001) Model domain too big to print to terminal - skipping I/O
(PID.TID 0000.0001) // =======================================================
(PID.TID 0000.0001) // Field Model Ro_surf (ini_masks_etc) tile     77 at iteration          1
(PID.TID 0000.0001) // CMIN =          1.000000000000000E+32
(PID.TID 0000.0001) // CMAX =         -1.000000000000000E+32
(PID.TID 0000.0001) // CINT =          0.000000000000000E+00
(PID.TID 0000.0001) // SYMBOLS (CMIN->CMAX): -abcdefghijklmnopqrstuvwxyz+
(PID.TID 0000.0001) //                  0.0: .
(PID.TID 0000.0001) // RANGE I (Lo:Hi:Step):( 607: 618:   1)
(PID.TID 0000.0001) // RANGE J (Lo:Hi:Step):(   6:  -1:  -1)
(PID.TID 0000.0001) // RANGE K (Lo:Hi:Step):(   1:   1:   1)
(PID.TID 0000.0001) // =======================================================
(PID.TID 0000.0001) Model domain too big to print to terminal - skipping I/O
(PID.TID 0000.0001) // =======================================================
(PID.TID 0000.0001) // Field Model Ro_surf (ini_masks_etc) tile     78 at iteration          1
(PID.TID 0000.0001) // CMIN =          1.000000000000000E+32
(PID.TID 0000.0001) // CMAX =         -1.000000000000000E+32
(PID.TID 0000.0001) // CINT =          0.000000000000000E+00
(PID.TID 0000.0001) // SYMBOLS (CMIN->CMAX): -abcdefghijklmnopqrstuvwxyz+
(PID.TID 0000.0001) //                  0.0: .
(PID.TID 0000.0001) // RANGE I (Lo:Hi:Step):( 615: 626:   1)
(PID.TID 0000.0001) // RANGE J (Lo:Hi:Step):(   6:  -1:  -1)
(PID.TID 0000.0001) // RANGE K (Lo:Hi:Step):(   1:   1:   1)
(PID.TID 0000.0001) // =======================================================
(PID.TID 0000.0001) Model domain too big to print to terminal - skipping I/O
(PID.TID 0000.0001) // =======================================================
(PID.TID 0000.0001) // Field Model Ro_surf (ini_masks_etc) tile     79 at iteration          1
(PID.TID 0000.0001) // CMIN =          1.000000000000000E+32
(PID.TID 0000.0001) // CMAX =         -1.000000000000000E+32
(PID.TID 0000.0001) // CINT =          0.000000000000000E+00
(PID.TID 0000.0001) // SYMBOLS (CMIN->CMAX): -abcdefghijklmnopqrstuvwxyz+
(PID.TID 0000.0001) //                  0.0: .
(PID.TID 0000.0001) // RANGE I (Lo:Hi:Step):( 623: 634:   1)
(PID.TID 0000.0001) // RANGE J (Lo:Hi:Step):(   6:  -1:  -1)
(PID.TID 0000.0001) // RANGE K (Lo:Hi:Step):(   1:   1:   1)
(PID.TID 0000.0001) // =======================================================
(PID.TID 0000.0001) Model domain too big to print to terminal - skipping I/O
(PID.TID 0000.0001) // =======================================================
(PID.TID 0000.0001) // Field Model Ro_surf (ini_masks_etc) tile     80 at iteration          1
(PID.TID 0000.0001) // CMIN =          1.000000000000000E+32
(PID.TID 0000.0001) // CMAX =         -1.000000000000000E+32
(PID.TID 0000.0001) // CINT =          0.000000000000000E+00
(PID.TID 0000.0001) // SYMBOLS (CMIN->CMAX): -abcdefghijklmnopqrstuvwxyz+
(PID.TID 0000.0001) //                  0.0: .
(PID.TID 0000.0001) // RANGE I (Lo:Hi:Step):( 631: 642:   1)
(PID.TID 0000.0001) // RANGE J (Lo:Hi:Step):(   6:  -1:  -1)
(PID.TID 0000.0001) // RANGE K (Lo:Hi:Step):(   1:   1:   1)
(PID.TID 0000.0001) // =======================================================
(PID.TID 0000.0001) Model domain too big to print to terminal - skipping I/O
(PID.TID 0000.0001) // =======================================================
(PID.TID 0000.0001) // Field Model Ro_surf (ini_masks_etc) tile     81 at iteration          1
(PID.TID 0000.0001) // CMIN =          1.000000000000000E+32
(PID.TID 0000.0001) // CMAX =         -1.000000000000000E+32
(PID.TID 0000.0001) // CINT =          0.000000000000000E+00
(PID.TID 0000.0001) // SYMBOLS (CMIN->CMAX): -abcdefghijklmnopqrstuvwxyz+
(PID.TID 0000.0001) //                  0.0: .
(PID.TID 0000.0001) // RANGE I (Lo:Hi:Step):( 639: 650:   1)
(PID.TID 0000.0001) // RANGE J (Lo:Hi:Step):(   6:  -1:  -1)
(PID.TID 0000.0001) // RANGE K (Lo:Hi:Step):(   1:   1:   1)
(PID.TID 0000.0001) // =======================================================
(PID.TID 0000.0001) Model domain too big to print to terminal - skipping I/O
(PID.TID 0000.0001) // =======================================================
(PID.TID 0000.0001) // Field Model Ro_surf (ini_masks_etc) tile     82 at iteration          1
(PID.TID 0000.0001) // CMIN =          1.000000000000000E+32
(PID.TID 0000.0001) // CMAX =         -1.000000000000000E+32
(PID.TID 0000.0001) // CINT =          0.000000000000000E+00
(PID.TID 0000.0001) // SYMBOLS (CMIN->CMAX): -abcdefghijklmnopqrstuvwxyz+
(PID.TID 0000.0001) //                  0.0: .
(PID.TID 0000.0001) // RANGE I (Lo:Hi:Step):( 647: 658:   1)
(PID.TID 0000.0001) // RANGE J (Lo:Hi:Step):(   6:  -1:  -1)
(PID.TID 0000.0001) // RANGE K (Lo:Hi:Step):(   1:   1:   1)
(PID.TID 0000.0001) // =======================================================
(PID.TID 0000.0001) Model domain too big to print to terminal - skipping I/O
(PID.TID 0000.0001) // =======================================================
(PID.TID 0000.0001) // Field Model Ro_surf (ini_masks_etc) tile     83 at iteration          1
(PID.TID 0000.0001) // CMIN =          1.000000000000000E+32
(PID.TID 0000.0001) // CMAX =         -1.000000000000000E+32
(PID.TID 0000.0001) // CINT =          0.000000000000000E+00
(PID.TID 0000.0001) // SYMBOLS (CMIN->CMAX): -abcdefghijklmnopqrstuvwxyz+
(PID.TID 0000.0001) //                  0.0: .
(PID.TID 0000.0001) // RANGE I (Lo:Hi:Step):( 655: 666:   1)
(PID.TID 0000.0001) // RANGE J (Lo:Hi:Step):(   6:  -1:  -1)
(PID.TID 0000.0001) // RANGE K (Lo:Hi:Step):(   1:   1:   1)
(PID.TID 0000.0001) // =======================================================
(PID.TID 0000.0001) Model domain too big to print to terminal - skipping I/O
(PID.TID 0000.0001) // =======================================================
(PID.TID 0000.0001) // Field Model Ro_surf (ini_masks_etc) tile     84 at iteration          1
(PID.TID 0000.0001) // CMIN =          1.000000000000000E+32
(PID.TID 0000.0001) // CMAX =         -1.000000000000000E+32
(PID.TID 0000.0001) // CINT =          0.000000000000000E+00
(PID.TID 0000.0001) // SYMBOLS (CMIN->CMAX): -abcdefghijklmnopqrstuvwxyz+
(PID.TID 0000.0001) //                  0.0: .
(PID.TID 0000.0001) // RANGE I (Lo:Hi:Step):( 663: 674:   1)
(PID.TID 0000.0001) // RANGE J (Lo:Hi:Step):(   6:  -1:  -1)
(PID.TID 0000.0001) // RANGE K (Lo:Hi:Step):(   1:   1:   1)
(PID.TID 0000.0001) // =======================================================
(PID.TID 0000.0001) Model domain too big to print to terminal - skipping I/O
(PID.TID 0000.0001) // =======================================================
(PID.TID 0000.0001) // Field Model Ro_surf (ini_masks_etc) tile     85 at iteration          1
(PID.TID 0000.0001) // CMIN =          1.000000000000000E+32
(PID.TID 0000.0001) // CMAX =         -1.000000000000000E+32
(PID.TID 0000.0001) // CINT =          0.000000000000000E+00
(PID.TID 0000.0001) // SYMBOLS (CMIN->CMAX): -abcdefghijklmnopqrstuvwxyz+
(PID.TID 0000.0001) //                  0.0: .
(PID.TID 0000.0001) // RANGE I (Lo:Hi:Step):( 671: 682:   1)
(PID.TID 0000.0001) // RANGE J (Lo:Hi:Step):(   6:  -1:  -1)
(PID.TID 0000.0001) // RANGE K (Lo:Hi:Step):(   1:   1:   1)
(PID.TID 0000.0001) // =======================================================
(PID.TID 0000.0001) Model domain too big to print to terminal - skipping I/O
(PID.TID 0000.0001) // =======================================================
(PID.TID 0000.0001) // Field Model Ro_surf (ini_masks_etc) tile     86 at iteration          1
(PID.TID 0000.0001) // CMIN =          1.000000000000000E+32
(PID.TID 0000.0001) // CMAX =         -1.000000000000000E+32
(PID.TID 0000.0001) // CINT =          0.000000000000000E+00
(PID.TID 0000.0001) // SYMBOLS (CMIN->CMAX): -abcdefghijklmnopqrstuvwxyz+
(PID.TID 0000.0001) //                  0.0: .
(PID.TID 0000.0001) // RANGE I (Lo:Hi:Step):( 679: 690:   1)
(PID.TID 0000.0001) // RANGE J (Lo:Hi:Step):(   6:  -1:  -1)
(PID.TID 0000.0001) // RANGE K (Lo:Hi:Step):(   1:   1:   1)
(PID.TID 0000.0001) // =======================================================
(PID.TID 0000.0001) Model domain too big to print to terminal - skipping I/O
(PID.TID 0000.0001) // =======================================================
(PID.TID 0000.0001) // Field Model Ro_surf (ini_masks_etc) tile     87 at iteration          1
(PID.TID 0000.0001) // CMIN =          1.000000000000000E+32
(PID.TID 0000.0001) // CMAX =         -1.000000000000000E+32
(PID.TID 0000.0001) // CINT =          0.000000000000000E+00
(PID.TID 0000.0001) // SYMBOLS (CMIN->CMAX): -abcdefghijklmnopqrstuvwxyz+
(PID.TID 0000.0001) //                  0.0: .
(PID.TID 0000.0001) // RANGE I (Lo:Hi:Step):( 687: 698:   1)
(PID.TID 0000.0001) // RANGE J (Lo:Hi:Step):(   6:  -1:  -1)
(PID.TID 0000.0001) // RANGE K (Lo:Hi:Step):(   1:   1:   1)
(PID.TID 0000.0001) // =======================================================
(PID.TID 0000.0001) Model domain too big to print to terminal - skipping I/O
(PID.TID 0000.0001) // =======================================================
(PID.TID 0000.0001) // Field Model Ro_surf (ini_masks_etc) tile     88 at iteration          1
(PID.TID 0000.0001) // CMIN =          1.000000000000000E+32
(PID.TID 0000.0001) // CMAX =         -1.000000000000000E+32
(PID.TID 0000.0001) // CINT =          0.000000000000000E+00
(PID.TID 0000.0001) // SYMBOLS (CMIN->CMAX): -abcdefghijklmnopqrstuvwxyz+
(PID.TID 0000.0001) //                  0.0: .
(PID.TID 0000.0001) // RANGE I (Lo:Hi:Step):( 695: 706:   1)
(PID.TID 0000.0001) // RANGE J (Lo:Hi:Step):(   6:  -1:  -1)
(PID.TID 0000.0001) // RANGE K (Lo:Hi:Step):(   1:   1:   1)
(PID.TID 0000.0001) // =======================================================
(PID.TID 0000.0001) Model domain too big to print to terminal - skipping I/O
(PID.TID 0000.0001) // =======================================================
(PID.TID 0000.0001) // Field Model Ro_surf (ini_masks_etc) tile     89 at iteration          1
(PID.TID 0000.0001) // CMIN =         -7.105427357601002E-15
(PID.TID 0000.0001) // CMAX =         -7.105427357601002E-15
(PID.TID 0000.0001) // CINT =          0.000000000000000E+00
(PID.TID 0000.0001) // SYMBOLS (CMIN->CMAX): -abcdefghijklmnopqrstuvwxyz+
(PID.TID 0000.0001) //                  0.0: .
(PID.TID 0000.0001) // RANGE I (Lo:Hi:Step):( 703: 714:   1)
(PID.TID 0000.0001) // RANGE J (Lo:Hi:Step):(   6:  -1:  -1)
(PID.TID 0000.0001) // RANGE K (Lo:Hi:Step):(   1:   1:   1)
(PID.TID 0000.0001) // =======================================================
(PID.TID 0000.0001) Model domain too big to print to terminal - skipping I/O
(PID.TID 0000.0001) // =======================================================
(PID.TID 0000.0001) // Field Model Ro_surf (ini_masks_etc) tile     90 at iteration          1
(PID.TID 0000.0001) // CMIN =         -7.105427357601002E-15
(PID.TID 0000.0001) // CMAX =         -7.105427357601002E-15
(PID.TID 0000.0001) // CINT =          0.000000000000000E+00
(PID.TID 0000.0001) // SYMBOLS (CMIN->CMAX): -abcdefghijklmnopqrstuvwxyz+
(PID.TID 0000.0001) //                  0.0: .
(PID.TID 0000.0001) // RANGE I (Lo:Hi:Step):( 711: 722:   1)
(PID.TID 0000.0001) // RANGE J (Lo:Hi:Step):(   6:  -1:  -1)
(PID.TID 0000.0001) // RANGE K (Lo:Hi:Step):(   1:   1:   1)
(PID.TID 0000.0001) // =======================================================
(PID.TID 0000.0001) Model domain too big to print to terminal - skipping I/O
(PID.TID 0000.0001) // =======================================================
(PID.TID 0000.0001) // Field Model Ro_surf (ini_masks_etc) tile     91 at iteration          1
(PID.TID 0000.0001) // CMIN =          1.000000000000000E+32
(PID.TID 0000.0001) // CMAX =         -1.000000000000000E+32
(PID.TID 0000.0001) // CINT =          0.000000000000000E+00
(PID.TID 0000.0001) // SYMBOLS (CMIN->CMAX): -abcdefghijklmnopqrstuvwxyz+
(PID.TID 0000.0001) //                  0.0: .
(PID.TID 0000.0001) // RANGE I (Lo:Hi:Step):( 719: 730:   1)
(PID.TID 0000.0001) // RANGE J (Lo:Hi:Step):(   6:  -1:  -1)
(PID.TID 0000.0001) // RANGE K (Lo:Hi:Step):(   1:   1:   1)
(PID.TID 0000.0001) // =======================================================
(PID.TID 0000.0001) Model domain too big to print to terminal - skipping I/O
(PID.TID 0000.0001) // =======================================================
(PID.TID 0000.0001) // Field Model Ro_surf (ini_masks_etc) tile     92 at iteration          1
(PID.TID 0000.0001) // CMIN =          1.000000000000000E+32
(PID.TID 0000.0001) // CMAX =         -1.000000000000000E+32
(PID.TID 0000.0001) // CINT =          0.000000000000000E+00
(PID.TID 0000.0001) // SYMBOLS (CMIN->CMAX): -abcdefghijklmnopqrstuvwxyz+
(PID.TID 0000.0001) //                  0.0: .
(PID.TID 0000.0001) // RANGE I (Lo:Hi:Step):( 727: 738:   1)
(PID.TID 0000.0001) // RANGE J (Lo:Hi:Step):(   6:  -1:  -1)
(PID.TID 0000.0001) // RANGE K (Lo:Hi:Step):(   1:   1:   1)
(PID.TID 0000.0001) // =======================================================
(PID.TID 0000.0001) Model domain too big to print to terminal - skipping I/O
(PID.TID 0000.0001) // =======================================================
(PID.TID 0000.0001) // Field Model Ro_surf (ini_masks_etc) tile     93 at iteration          1
(PID.TID 0000.0001) // CMIN =         -7.105427357601002E-15
(PID.TID 0000.0001) // CMAX =         -7.105427357601002E-15
(PID.TID 0000.0001) // CINT =          0.000000000000000E+00
(PID.TID 0000.0001) // SYMBOLS (CMIN->CMAX): -abcdefghijklmnopqrstuvwxyz+
(PID.TID 0000.0001) //                  0.0: .
(PID.TID 0000.0001) // RANGE I (Lo:Hi:Step):( 735: 746:   1)
(PID.TID 0000.0001) // RANGE J (Lo:Hi:Step):(   6:  -1:  -1)
(PID.TID 0000.0001) // RANGE K (Lo:Hi:Step):(   1:   1:   1)
(PID.TID 0000.0001) // =======================================================
(PID.TID 0000.0001) Model domain too big to print to terminal - skipping I/O
(PID.TID 0000.0001) // =======================================================
(PID.TID 0000.0001) // Field Model Ro_surf (ini_masks_etc) tile     94 at iteration          1
(PID.TID 0000.0001) // CMIN =         -7.105427357601002E-15
(PID.TID 0000.0001) // CMAX =         -7.105427357601002E-15
(PID.TID 0000.0001) // CINT =          0.000000000000000E+00
(PID.TID 0000.0001) // SYMBOLS (CMIN->CMAX): -abcdefghijklmnopqrstuvwxyz+
(PID.TID 0000.0001) //                  0.0: .
(PID.TID 0000.0001) // RANGE I (Lo:Hi:Step):( 743: 754:   1)
(PID.TID 0000.0001) // RANGE J (Lo:Hi:Step):(   6:  -1:  -1)
(PID.TID 0000.0001) // RANGE K (Lo:Hi:Step):(   1:   1:   1)
(PID.TID 0000.0001) // =======================================================
(PID.TID 0000.0001) Model domain too big to print to terminal - skipping I/O
(PID.TID 0000.0001) // =======================================================
(PID.TID 0000.0001) // Field Model Ro_surf (ini_masks_etc) tile     95 at iteration          1
(PID.TID 0000.0001) // CMIN =          1.000000000000000E+32
(PID.TID 0000.0001) // CMAX =         -1.000000000000000E+32
(PID.TID 0000.0001) // CINT =          0.000000000000000E+00
(PID.TID 0000.0001) // SYMBOLS (CMIN->CMAX): -abcdefghijklmnopqrstuvwxyz+
(PID.TID 0000.0001) //                  0.0: .
(PID.TID 0000.0001) // RANGE I (Lo:Hi:Step):( 751: 762:   1)
(PID.TID 0000.0001) // RANGE J (Lo:Hi:Step):(   6:  -1:  -1)
(PID.TID 0000.0001) // RANGE K (Lo:Hi:Step):(   1:   1:   1)
(PID.TID 0000.0001) // =======================================================
(PID.TID 0000.0001) Model domain too big to print to terminal - skipping I/O
(PID.TID 0000.0001) // =======================================================
(PID.TID 0000.0001) // Field Model Ro_surf (ini_masks_etc) tile     96 at iteration          1
(PID.TID 0000.0001) // CMIN =          1.000000000000000E+32
(PID.TID 0000.0001) // CMAX =         -1.000000000000000E+32
(PID.TID 0000.0001) // CINT =          0.000000000000000E+00
(PID.TID 0000.0001) // SYMBOLS (CMIN->CMAX): -abcdefghijklmnopqrstuvwxyz+
(PID.TID 0000.0001) //                  0.0: .
(PID.TID 0000.0001) // RANGE I (Lo:Hi:Step):( 759: 770:   1)
(PID.TID 0000.0001) // RANGE J (Lo:Hi:Step):(   6:  -1:  -1)
(PID.TID 0000.0001) // RANGE K (Lo:Hi:Step):(   1:   1:   1)
(PID.TID 0000.0001) // =======================================================
(PID.TID 0000.0001) Model domain too big to print to terminal - skipping I/O
(PID.TID 0000.0001) // =======================================================
(PID.TID 0000.0001) // Field Model Ro_surf (ini_masks_etc) tile     97 at iteration          1
(PID.TID 0000.0001) // CMIN =          1.000000000000000E+32
(PID.TID 0000.0001) // CMAX =         -1.000000000000000E+32
(PID.TID 0000.0001) // CINT =          0.000000000000000E+00
(PID.TID 0000.0001) // SYMBOLS (CMIN->CMAX): -abcdefghijklmnopqrstuvwxyz+
(PID.TID 0000.0001) //                  0.0: .
(PID.TID 0000.0001) // RANGE I (Lo:Hi:Step):( 767: 778:   1)
(PID.TID 0000.0001) // RANGE J (Lo:Hi:Step):(   6:  -1:  -1)
(PID.TID 0000.0001) // RANGE K (Lo:Hi:Step):(   1:   1:   1)
(PID.TID 0000.0001) // =======================================================
(PID.TID 0000.0001) Model domain too big to print to terminal - skipping I/O
(PID.TID 0000.0001) // =======================================================
(PID.TID 0000.0001) // Field Model Ro_surf (ini_masks_etc) tile     98 at iteration          1
(PID.TID 0000.0001) // CMIN =          1.000000000000000E+32
(PID.TID 0000.0001) // CMAX =         -1.000000000000000E+32
(PID.TID 0000.0001) // CINT =          0.000000000000000E+00
(PID.TID 0000.0001) // SYMBOLS (CMIN->CMAX): -abcdefghijklmnopqrstuvwxyz+
(PID.TID 0000.0001) //                  0.0: .
(PID.TID 0000.0001) // RANGE I (Lo:Hi:Step):( 775: 786:   1)
(PID.TID 0000.0001) // RANGE J (Lo:Hi:Step):(   6:  -1:  -1)
(PID.TID 0000.0001) // RANGE K (Lo:Hi:Step):(   1:   1:   1)
(PID.TID 0000.0001) // =======================================================
(PID.TID 0000.0001) Model domain too big to print to terminal - skipping I/O
(PID.TID 0000.0001) // =======================================================
(PID.TID 0000.0001) // Field Model Ro_surf (ini_masks_etc) tile     99 at iteration          1
(PID.TID 0000.0001) // CMIN =          1.000000000000000E+32
(PID.TID 0000.0001) // CMAX =         -1.000000000000000E+32
(PID.TID 0000.0001) // CINT =          0.000000000000000E+00
(PID.TID 0000.0001) // SYMBOLS (CMIN->CMAX): -abcdefghijklmnopqrstuvwxyz+
(PID.TID 0000.0001) //                  0.0: .
(PID.TID 0000.0001) // RANGE I (Lo:Hi:Step):( 783: 794:   1)
(PID.TID 0000.0001) // RANGE J (Lo:Hi:Step):(   6:  -1:  -1)
(PID.TID 0000.0001) // RANGE K (Lo:Hi:Step):(   1:   1:   1)
(PID.TID 0000.0001) // =======================================================
(PID.TID 0000.0001) Model domain too big to print to terminal - skipping I/O
(PID.TID 0000.0001) // =======================================================
(PID.TID 0000.0001) // Field Model Ro_surf (ini_masks_etc) tile    100 at iteration          1
(PID.TID 0000.0001) // CMIN =          1.000000000000000E+32
(PID.TID 0000.0001) // CMAX =         -1.000000000000000E+32
(PID.TID 0000.0001) // CINT =          0.000000000000000E+00
(PID.TID 0000.0001) // SYMBOLS (CMIN->CMAX): -abcdefghijklmnopqrstuvwxyz+
(PID.TID 0000.0001) //                  0.0: .
(PID.TID 0000.0001) // RANGE I (Lo:Hi:Step):( 791: 802:   1)
(PID.TID 0000.0001) // RANGE J (Lo:Hi:Step):(   6:  -1:  -1)
(PID.TID 0000.0001) // RANGE K (Lo:Hi:Step):(   1:   1:   1)
(PID.TID 0000.0001) // =======================================================
(PID.TID 0000.0001) Model domain too big to print to terminal - skipping I/O
(PID.TID 0000.0001) // =======================================================
(PID.TID 0000.0001) // Field Model Ro_surf (ini_masks_etc) tile    101 at iteration          1
(PID.TID 0000.0001) // CMIN =          1.000000000000000E+32
(PID.TID 0000.0001) // CMAX =         -1.000000000000000E+32
(PID.TID 0000.0001) // CINT =          0.000000000000000E+00
(PID.TID 0000.0001) // SYMBOLS (CMIN->CMAX): -abcdefghijklmnopqrstuvwxyz+
(PID.TID 0000.0001) //                  0.0: .
(PID.TID 0000.0001) // RANGE I (Lo:Hi:Step):( 799: 810:   1)
(PID.TID 0000.0001) // RANGE J (Lo:Hi:Step):(   6:  -1:  -1)
(PID.TID 0000.0001) // RANGE K (Lo:Hi:Step):(   1:   1:   1)
(PID.TID 0000.0001) // =======================================================
(PID.TID 0000.0001) Model domain too big to print to terminal - skipping I/O
(PID.TID 0000.0001) // =======================================================
(PID.TID 0000.0001) // Field Model Ro_surf (ini_masks_etc) tile    102 at iteration          1
(PID.TID 0000.0001) // CMIN =          1.000000000000000E+32
(PID.TID 0000.0001) // CMAX =         -1.000000000000000E+32
(PID.TID 0000.0001) // CINT =          0.000000000000000E+00
(PID.TID 0000.0001) // SYMBOLS (CMIN->CMAX): -abcdefghijklmnopqrstuvwxyz+
(PID.TID 0000.0001) //                  0.0: .
(PID.TID 0000.0001) // RANGE I (Lo:Hi:Step):( 807: 818:   1)
(PID.TID 0000.0001) // RANGE J (Lo:Hi:Step):(   6:  -1:  -1)
(PID.TID 0000.0001) // RANGE K (Lo:Hi:Step):(   1:   1:   1)
(PID.TID 0000.0001) // =======================================================
(PID.TID 0000.0001) Model domain too big to print to terminal - skipping I/O
(PID.TID 0000.0001) // =======================================================
(PID.TID 0000.0001) // Field Model Ro_surf (ini_masks_etc) tile    103 at iteration          1
(PID.TID 0000.0001) // CMIN =          1.000000000000000E+32
(PID.TID 0000.0001) // CMAX =         -1.000000000000000E+32
(PID.TID 0000.0001) // CINT =          0.000000000000000E+00
(PID.TID 0000.0001) // SYMBOLS (CMIN->CMAX): -abcdefghijklmnopqrstuvwxyz+
(PID.TID 0000.0001) //                  0.0: .
(PID.TID 0000.0001) // RANGE I (Lo:Hi:Step):( 815: 826:   1)
(PID.TID 0000.0001) // RANGE J (Lo:Hi:Step):(   6:  -1:  -1)
(PID.TID 0000.0001) // RANGE K (Lo:Hi:Step):(   1:   1:   1)
(PID.TID 0000.0001) // =======================================================
(PID.TID 0000.0001) Model domain too big to print to terminal - skipping I/O
(PID.TID 0000.0001) // =======================================================
(PID.TID 0000.0001) // Field Model Ro_surf (ini_masks_etc) tile    104 at iteration          1
(PID.TID 0000.0001) // CMIN =          1.000000000000000E+32
(PID.TID 0000.0001) // CMAX =         -1.000000000000000E+32
(PID.TID 0000.0001) // CINT =          0.000000000000000E+00
(PID.TID 0000.0001) // SYMBOLS (CMIN->CMAX): -abcdefghijklmnopqrstuvwxyz+
(PID.TID 0000.0001) //                  0.0: .
(PID.TID 0000.0001) // RANGE I (Lo:Hi:Step):( 823: 834:   1)
(PID.TID 0000.0001) // RANGE J (Lo:Hi:Step):(   6:  -1:  -1)
(PID.TID 0000.0001) // RANGE K (Lo:Hi:Step):(   1:   1:   1)
(PID.TID 0000.0001) // =======================================================
(PID.TID 0000.0001) Model domain too big to print to terminal - skipping I/O
(PID.TID 0000.0001) // =======================================================
(PID.TID 0000.0001) // Field Model Ro_surf (ini_masks_etc) tile    105 at iteration          1
(PID.TID 0000.0001) // CMIN =          1.000000000000000E+32
(PID.TID 0000.0001) // CMAX =         -1.000000000000000E+32
(PID.TID 0000.0001) // CINT =          0.000000000000000E+00
(PID.TID 0000.0001) // SYMBOLS (CMIN->CMAX): -abcdefghijklmnopqrstuvwxyz+
(PID.TID 0000.0001) //                  0.0: .
(PID.TID 0000.0001) // RANGE I (Lo:Hi:Step):( 831: 842:   1)
(PID.TID 0000.0001) // RANGE J (Lo:Hi:Step):(   6:  -1:  -1)
(PID.TID 0000.0001) // RANGE K (Lo:Hi:Step):(   1:   1:   1)
(PID.TID 0000.0001) // =======================================================
(PID.TID 0000.0001) Model domain too big to print to terminal - skipping I/O
(PID.TID 0000.0001) // =======================================================
(PID.TID 0000.0001) // Field Model Ro_surf (ini_masks_etc) tile    106 at iteration          1
(PID.TID 0000.0001) // CMIN =          1.000000000000000E+32
(PID.TID 0000.0001) // CMAX =         -1.000000000000000E+32
(PID.TID 0000.0001) // CINT =          0.000000000000000E+00
(PID.TID 0000.0001) // SYMBOLS (CMIN->CMAX): -abcdefghijklmnopqrstuvwxyz+
(PID.TID 0000.0001) //                  0.0: .
(PID.TID 0000.0001) // RANGE I (Lo:Hi:Step):( 839: 850:   1)
(PID.TID 0000.0001) // RANGE J (Lo:Hi:Step):(   6:  -1:  -1)
(PID.TID 0000.0001) // RANGE K (Lo:Hi:Step):(   1:   1:   1)
(PID.TID 0000.0001) // =======================================================
(PID.TID 0000.0001) Model domain too big to print to terminal - skipping I/O
(PID.TID 0000.0001) // =======================================================
(PID.TID 0000.0001) // Field Model Ro_surf (ini_masks_etc) tile    107 at iteration          1
(PID.TID 0000.0001) // CMIN =          1.000000000000000E+32
(PID.TID 0000.0001) // CMAX =         -1.000000000000000E+32
(PID.TID 0000.0001) // CINT =          0.000000000000000E+00
(PID.TID 0000.0001) // SYMBOLS (CMIN->CMAX): -abcdefghijklmnopqrstuvwxyz+
(PID.TID 0000.0001) //                  0.0: .
(PID.TID 0000.0001) // RANGE I (Lo:Hi:Step):( 847: 858:   1)
(PID.TID 0000.0001) // RANGE J (Lo:Hi:Step):(   6:  -1:  -1)
(PID.TID 0000.0001) // RANGE K (Lo:Hi:Step):(   1:   1:   1)
(PID.TID 0000.0001) // =======================================================
(PID.TID 0000.0001) Model domain too big to print to terminal - skipping I/O
(PID.TID 0000.0001) // =======================================================
(PID.TID 0000.0001) // Field Model Ro_surf (ini_masks_etc) tile    108 at iteration          1
(PID.TID 0000.0001) // CMIN =          1.000000000000000E+32
(PID.TID 0000.0001) // CMAX =         -1.000000000000000E+32
(PID.TID 0000.0001) // CINT =          0.000000000000000E+00
(PID.TID 0000.0001) // SYMBOLS (CMIN->CMAX): -abcdefghijklmnopqrstuvwxyz+
(PID.TID 0000.0001) //                  0.0: .
(PID.TID 0000.0001) // RANGE I (Lo:Hi:Step):( 855: 866:   1)
(PID.TID 0000.0001) // RANGE J (Lo:Hi:Step):(   6:  -1:  -1)
(PID.TID 0000.0001) // RANGE K (Lo:Hi:Step):(   1:   1:   1)
(PID.TID 0000.0001) // =======================================================
(PID.TID 0000.0001) Model domain too big to print to terminal - skipping I/O
(PID.TID 0000.0001) // =======================================================
(PID.TID 0000.0001) // Field Model Ro_surf (ini_masks_etc) tile    109 at iteration          1
(PID.TID 0000.0001) // CMIN =          1.000000000000000E+32
(PID.TID 0000.0001) // CMAX =         -1.000000000000000E+32
(PID.TID 0000.0001) // CINT =          0.000000000000000E+00
(PID.TID 0000.0001) // SYMBOLS (CMIN->CMAX): -abcdefghijklmnopqrstuvwxyz+
(PID.TID 0000.0001) //                  0.0: .
(PID.TID 0000.0001) // RANGE I (Lo:Hi:Step):( 863: 874:   1)
(PID.TID 0000.0001) // RANGE J (Lo:Hi:Step):(   6:  -1:  -1)
(PID.TID 0000.0001) // RANGE K (Lo:Hi:Step):(   1:   1:   1)
(PID.TID 0000.0001) // =======================================================
(PID.TID 0000.0001) Model domain too big to print to terminal - skipping I/O
(PID.TID 0000.0001) // =======================================================
(PID.TID 0000.0001) // Field Model Ro_surf (ini_masks_etc) tile    110 at iteration          1
(PID.TID 0000.0001) // CMIN =          1.000000000000000E+32
(PID.TID 0000.0001) // CMAX =         -1.000000000000000E+32
(PID.TID 0000.0001) // CINT =          0.000000000000000E+00
(PID.TID 0000.0001) // SYMBOLS (CMIN->CMAX): -abcdefghijklmnopqrstuvwxyz+
(PID.TID 0000.0001) //                  0.0: .
(PID.TID 0000.0001) // RANGE I (Lo:Hi:Step):( 871: 882:   1)
(PID.TID 0000.0001) // RANGE J (Lo:Hi:Step):(   6:  -1:  -1)
(PID.TID 0000.0001) // RANGE K (Lo:Hi:Step):(   1:   1:   1)
(PID.TID 0000.0001) // =======================================================
(PID.TID 0000.0001) Model domain too big to print to terminal - skipping I/O
(PID.TID 0000.0001) // =======================================================
(PID.TID 0000.0001) // Field Model Ro_surf (ini_masks_etc) tile    111 at iteration          1
(PID.TID 0000.0001) // CMIN =          1.000000000000000E+32
(PID.TID 0000.0001) // CMAX =         -1.000000000000000E+32
(PID.TID 0000.0001) // CINT =          0.000000000000000E+00
(PID.TID 0000.0001) // SYMBOLS (CMIN->CMAX): -abcdefghijklmnopqrstuvwxyz+
(PID.TID 0000.0001) //                  0.0: .
(PID.TID 0000.0001) // RANGE I (Lo:Hi:Step):( 879: 890:   1)
(PID.TID 0000.0001) // RANGE J (Lo:Hi:Step):(   6:  -1:  -1)
(PID.TID 0000.0001) // RANGE K (Lo:Hi:Step):(   1:   1:   1)
(PID.TID 0000.0001) // =======================================================
(PID.TID 0000.0001) Model domain too big to print to terminal - skipping I/O
(PID.TID 0000.0001) // =======================================================
(PID.TID 0000.0001) // Field Model Ro_surf (ini_masks_etc) tile    112 at iteration          1
(PID.TID 0000.0001) // CMIN =          1.000000000000000E+32
(PID.TID 0000.0001) // CMAX =         -1.000000000000000E+32
(PID.TID 0000.0001) // CINT =          0.000000000000000E+00
(PID.TID 0000.0001) // SYMBOLS (CMIN->CMAX): -abcdefghijklmnopqrstuvwxyz+
(PID.TID 0000.0001) //                  0.0: .
(PID.TID 0000.0001) // RANGE I (Lo:Hi:Step):( 887: 898:   1)
(PID.TID 0000.0001) // RANGE J (Lo:Hi:Step):(   6:  -1:  -1)
(PID.TID 0000.0001) // RANGE K (Lo:Hi:Step):(   1:   1:   1)
(PID.TID 0000.0001) // =======================================================
(PID.TID 0000.0001) Model domain too big to print to terminal - skipping I/O
(PID.TID 0000.0001) // =======================================================
(PID.TID 0000.0001) // Field Model Ro_surf (ini_masks_etc) tile    113 at iteration          1
(PID.TID 0000.0001) // CMIN =          1.000000000000000E+32
(PID.TID 0000.0001) // CMAX =         -1.000000000000000E+32
(PID.TID 0000.0001) // CINT =          0.000000000000000E+00
(PID.TID 0000.0001) // SYMBOLS (CMIN->CMAX): -abcdefghijklmnopqrstuvwxyz+
(PID.TID 0000.0001) //                  0.0: .
(PID.TID 0000.0001) // RANGE I (Lo:Hi:Step):( 895: 906:   1)
(PID.TID 0000.0001) // RANGE J (Lo:Hi:Step):(   6:  -1:  -1)
(PID.TID 0000.0001) // RANGE K (Lo:Hi:Step):(   1:   1:   1)
(PID.TID 0000.0001) // =======================================================
(PID.TID 0000.0001) Model domain too big to print to terminal - skipping I/O
(PID.TID 0000.0001) // =======================================================
(PID.TID 0000.0001) // Field Model Ro_surf (ini_masks_etc) tile    114 at iteration          1
(PID.TID 0000.0001) // CMIN =          1.000000000000000E+32
(PID.TID 0000.0001) // CMAX =         -1.000000000000000E+32
(PID.TID 0000.0001) // CINT =          0.000000000000000E+00
(PID.TID 0000.0001) // SYMBOLS (CMIN->CMAX): -abcdefghijklmnopqrstuvwxyz+
(PID.TID 0000.0001) //                  0.0: .
(PID.TID 0000.0001) // RANGE I (Lo:Hi:Step):( 903: 914:   1)
(PID.TID 0000.0001) // RANGE J (Lo:Hi:Step):(   6:  -1:  -1)
(PID.TID 0000.0001) // RANGE K (Lo:Hi:Step):(   1:   1:   1)
(PID.TID 0000.0001) // =======================================================
(PID.TID 0000.0001) Model domain too big to print to terminal - skipping I/O
(PID.TID 0000.0001) // =======================================================
(PID.TID 0000.0001) // Field Model Ro_surf (ini_masks_etc) tile    115 at iteration          1
(PID.TID 0000.0001) // CMIN =          1.000000000000000E+32
(PID.TID 0000.0001) // CMAX =         -1.000000000000000E+32
(PID.TID 0000.0001) // CINT =          0.000000000000000E+00
(PID.TID 0000.0001) // SYMBOLS (CMIN->CMAX): -abcdefghijklmnopqrstuvwxyz+
(PID.TID 0000.0001) //                  0.0: .
(PID.TID 0000.0001) // RANGE I (Lo:Hi:Step):( 911: 922:   1)
(PID.TID 0000.0001) // RANGE J (Lo:Hi:Step):(   6:  -1:  -1)
(PID.TID 0000.0001) // RANGE K (Lo:Hi:Step):(   1:   1:   1)
(PID.TID 0000.0001) // =======================================================
(PID.TID 0000.0001) Model domain too big to print to terminal - skipping I/O
(PID.TID 0000.0001) // =======================================================
(PID.TID 0000.0001) // Field Model Ro_surf (ini_masks_etc) tile    116 at iteration          1
(PID.TID 0000.0001) // CMIN =          1.000000000000000E+32
(PID.TID 0000.0001) // CMAX =         -1.000000000000000E+32
(PID.TID 0000.0001) // CINT =          0.000000000000000E+00
(PID.TID 0000.0001) // SYMBOLS (CMIN->CMAX): -abcdefghijklmnopqrstuvwxyz+
(PID.TID 0000.0001) //                  0.0: .
(PID.TID 0000.0001) // RANGE I (Lo:Hi:Step):( 919: 930:   1)
(PID.TID 0000.0001) // RANGE J (Lo:Hi:Step):(   6:  -1:  -1)
(PID.TID 0000.0001) // RANGE K (Lo:Hi:Step):(   1:   1:   1)
(PID.TID 0000.0001) // =======================================================
(PID.TID 0000.0001) Model domain too big to print to terminal - skipping I/O
(PID.TID 0000.0001) // =======================================================
(PID.TID 0000.0001) // Field Model Ro_surf (ini_masks_etc) tile    117 at iteration          1
(PID.TID 0000.0001) // CMIN =          1.000000000000000E+32
(PID.TID 0000.0001) // CMAX =         -1.000000000000000E+32
(PID.TID 0000.0001) // CINT =          0.000000000000000E+00
(PID.TID 0000.0001) // SYMBOLS (CMIN->CMAX): -abcdefghijklmnopqrstuvwxyz+
(PID.TID 0000.0001) //                  0.0: .
(PID.TID 0000.0001) // RANGE I (Lo:Hi:Step):( 927: 938:   1)
(PID.TID 0000.0001) // RANGE J (Lo:Hi:Step):(   6:  -1:  -1)
(PID.TID 0000.0001) // RANGE K (Lo:Hi:Step):(   1:   1:   1)
(PID.TID 0000.0001) // =======================================================
(PID.TID 0000.0001) Model domain too big to print to terminal - skipping I/O
(PID.TID 0000.0001) // =======================================================
(PID.TID 0000.0001) // Field Model Ro_surf (ini_masks_etc) tile    118 at iteration          1
(PID.TID 0000.0001) // CMIN =          1.000000000000000E+32
(PID.TID 0000.0001) // CMAX =         -1.000000000000000E+32
(PID.TID 0000.0001) // CINT =          0.000000000000000E+00
(PID.TID 0000.0001) // SYMBOLS (CMIN->CMAX): -abcdefghijklmnopqrstuvwxyz+
(PID.TID 0000.0001) //                  0.0: .
(PID.TID 0000.0001) // RANGE I (Lo:Hi:Step):( 935: 946:   1)
(PID.TID 0000.0001) // RANGE J (Lo:Hi:Step):(   6:  -1:  -1)
(PID.TID 0000.0001) // RANGE K (Lo:Hi:Step):(   1:   1:   1)
(PID.TID 0000.0001) // =======================================================
(PID.TID 0000.0001) Model domain too big to print to terminal - skipping I/O
(PID.TID 0000.0001) // =======================================================
(PID.TID 0000.0001) // Field Model Ro_surf (ini_masks_etc) tile    119 at iteration          1
(PID.TID 0000.0001) // CMIN =          1.000000000000000E+32
(PID.TID 0000.0001) // CMAX =         -1.000000000000000E+32
(PID.TID 0000.0001) // CINT =          0.000000000000000E+00
(PID.TID 0000.0001) // SYMBOLS (CMIN->CMAX): -abcdefghijklmnopqrstuvwxyz+
(PID.TID 0000.0001) //                  0.0: .
(PID.TID 0000.0001) // RANGE I (Lo:Hi:Step):( 943: 954:   1)
(PID.TID 0000.0001) // RANGE J (Lo:Hi:Step):(   6:  -1:  -1)
(PID.TID 0000.0001) // RANGE K (Lo:Hi:Step):(   1:   1:   1)
(PID.TID 0000.0001) // =======================================================
(PID.TID 0000.0001) Model domain too big to print to terminal - skipping I/O
(PID.TID 0000.0001) // =======================================================
(PID.TID 0000.0001) // Field Model Ro_surf (ini_masks_etc) tile    120 at iteration          1
(PID.TID 0000.0001) // CMIN =          1.000000000000000E+32
(PID.TID 0000.0001) // CMAX =         -1.000000000000000E+32
(PID.TID 0000.0001) // CINT =          0.000000000000000E+00
(PID.TID 0000.0001) // SYMBOLS (CMIN->CMAX): -abcdefghijklmnopqrstuvwxyz+
(PID.TID 0000.0001) //                  0.0: .
(PID.TID 0000.0001) // RANGE I (Lo:Hi:Step):( 951: 962:   1)
(PID.TID 0000.0001) // RANGE J (Lo:Hi:Step):(   6:  -1:  -1)
(PID.TID 0000.0001) // RANGE K (Lo:Hi:Step):(   1:   1:   1)
(PID.TID 0000.0001) // =======================================================
(PID.TID 0000.0001) Model domain too big to print to terminal - skipping I/O
(PID.TID 0000.0001) // =======================================================
(PID.TID 0000.0001) // Field Model Ro_surf (ini_masks_etc) tile    121 at iteration          1
(PID.TID 0000.0001) // CMIN =          1.000000000000000E+32
(PID.TID 0000.0001) // CMAX =         -1.000000000000000E+32
(PID.TID 0000.0001) // CINT =          0.000000000000000E+00
(PID.TID 0000.0001) // SYMBOLS (CMIN->CMAX): -abcdefghijklmnopqrstuvwxyz+
(PID.TID 0000.0001) //                  0.0: .
(PID.TID 0000.0001) // RANGE I (Lo:Hi:Step):( 959: 970:   1)
(PID.TID 0000.0001) // RANGE J (Lo:Hi:Step):(   6:  -1:  -1)
(PID.TID 0000.0001) // RANGE K (Lo:Hi:Step):(   1:   1:   1)
(PID.TID 0000.0001) // =======================================================
(PID.TID 0000.0001) Model domain too big to print to terminal - skipping I/O
(PID.TID 0000.0001) // =======================================================
(PID.TID 0000.0001) // Field Model Ro_surf (ini_masks_etc) tile    122 at iteration          1
(PID.TID 0000.0001) // CMIN =          1.000000000000000E+32
(PID.TID 0000.0001) // CMAX =         -1.000000000000000E+32
(PID.TID 0000.0001) // CINT =          0.000000000000000E+00
(PID.TID 0000.0001) // SYMBOLS (CMIN->CMAX): -abcdefghijklmnopqrstuvwxyz+
(PID.TID 0000.0001) //                  0.0: .
(PID.TID 0000.0001) // RANGE I (Lo:Hi:Step):( 967: 978:   1)
(PID.TID 0000.0001) // RANGE J (Lo:Hi:Step):(   6:  -1:  -1)
(PID.TID 0000.0001) // RANGE K (Lo:Hi:Step):(   1:   1:   1)
(PID.TID 0000.0001) // =======================================================
(PID.TID 0000.0001) Model domain too big to print to terminal - skipping I/O
(PID.TID 0000.0001) // =======================================================
(PID.TID 0000.0001) // Field Model Ro_surf (ini_masks_etc) tile    123 at iteration          1
(PID.TID 0000.0001) // CMIN =          1.000000000000000E+32
(PID.TID 0000.0001) // CMAX =         -1.000000000000000E+32
(PID.TID 0000.0001) // CINT =          0.000000000000000E+00
(PID.TID 0000.0001) // SYMBOLS (CMIN->CMAX): -abcdefghijklmnopqrstuvwxyz+
(PID.TID 0000.0001) //                  0.0: .
(PID.TID 0000.0001) // RANGE I (Lo:Hi:Step):( 975: 986:   1)
(PID.TID 0000.0001) // RANGE J (Lo:Hi:Step):(   6:  -1:  -1)
(PID.TID 0000.0001) // RANGE K (Lo:Hi:Step):(   1:   1:   1)
(PID.TID 0000.0001) // =======================================================
(PID.TID 0000.0001) Model domain too big to print to terminal - skipping I/O
(PID.TID 0000.0001) // =======================================================
(PID.TID 0000.0001) // Field Model Ro_surf (ini_masks_etc) tile    124 at iteration          1
(PID.TID 0000.0001) // CMIN =          1.000000000000000E+32
(PID.TID 0000.0001) // CMAX =         -1.000000000000000E+32
(PID.TID 0000.0001) // CINT =          0.000000000000000E+00
(PID.TID 0000.0001) // SYMBOLS (CMIN->CMAX): -abcdefghijklmnopqrstuvwxyz+
(PID.TID 0000.0001) //                  0.0: .
(PID.TID 0000.0001) // RANGE I (Lo:Hi:Step):( 983: 994:   1)
(PID.TID 0000.0001) // RANGE J (Lo:Hi:Step):(   6:  -1:  -1)
(PID.TID 0000.0001) // RANGE K (Lo:Hi:Step):(   1:   1:   1)
(PID.TID 0000.0001) // =======================================================
(PID.TID 0000.0001) Model domain too big to print to terminal - skipping I/O
(PID.TID 0000.0001) // =======================================================
(PID.TID 0000.0001) // Field Model Ro_surf (ini_masks_etc) tile    125 at iteration          1
(PID.TID 0000.0001) // CMIN =          1.000000000000000E+32
(PID.TID 0000.0001) // CMAX =         -1.000000000000000E+32
(PID.TID 0000.0001) // CINT =          0.000000000000000E+00
(PID.TID 0000.0001) // SYMBOLS (CMIN->CMAX): -abcdefghijklmnopqrstuvwxyz+
(PID.TID 0000.0001) //                  0.0: .
(PID.TID 0000.0001) // RANGE I (Lo:Hi:Step):( 991:1002:   1)
(PID.TID 0000.0001) // RANGE J (Lo:Hi:Step):(   6:  -1:  -1)
(PID.TID 0000.0001) // RANGE K (Lo:Hi:Step):(   1:   1:   1)
(PID.TID 0000.0001) // =======================================================
(PID.TID 0000.0001) Model domain too big to print to terminal - skipping I/O
(PID.TID 0000.0001) // =======================================================
(PID.TID 0000.0001) // Field Model Ro_surf (ini_masks_etc) tile    126 at iteration          1
(PID.TID 0000.0001) // CMIN =          1.000000000000000E+32
(PID.TID 0000.0001) // CMAX =         -1.000000000000000E+32
(PID.TID 0000.0001) // CINT =          0.000000000000000E+00
(PID.TID 0000.0001) // SYMBOLS (CMIN->CMAX): -abcdefghijklmnopqrstuvwxyz+
(PID.TID 0000.0001) //                  0.0: .
(PID.TID 0000.0001) // RANGE I (Lo:Hi:Step):( 999:1010:   1)
(PID.TID 0000.0001) // RANGE J (Lo:Hi:Step):(   6:  -1:  -1)
(PID.TID 0000.0001) // RANGE K (Lo:Hi:Step):(   1:   1:   1)
(PID.TID 0000.0001) // =======================================================
(PID.TID 0000.0001) Model domain too big to print to terminal - skipping I/O
(PID.TID 0000.0001) // =======================================================
(PID.TID 0000.0001) // Field Model Ro_surf (ini_masks_etc) tile    127 at iteration          1
(PID.TID 0000.0001) // CMIN =          1.000000000000000E+32
(PID.TID 0000.0001) // CMAX =         -1.000000000000000E+32
(PID.TID 0000.0001) // CINT =          0.000000000000000E+00
(PID.TID 0000.0001) // SYMBOLS (CMIN->CMAX): -abcdefghijklmnopqrstuvwxyz+
(PID.TID 0000.0001) //                  0.0: .
(PID.TID 0000.0001) // RANGE I (Lo:Hi:Step):(1007:1018:   1)
(PID.TID 0000.0001) // RANGE J (Lo:Hi:Step):(   6:  -1:  -1)
(PID.TID 0000.0001) // RANGE K (Lo:Hi:Step):(   1:   1:   1)
(PID.TID 0000.0001) // =======================================================
(PID.TID 0000.0001) Model domain too big to print to terminal - skipping I/O
(PID.TID 0000.0001) // =======================================================
(PID.TID 0000.0001) // Field Model Ro_surf (ini_masks_etc) tile    128 at iteration          1
(PID.TID 0000.0001) // CMIN =          1.000000000000000E+32
(PID.TID 0000.0001) // CMAX =         -1.000000000000000E+32
(PID.TID 0000.0001) // CINT =          0.000000000000000E+00
(PID.TID 0000.0001) // SYMBOLS (CMIN->CMAX): -abcdefghijklmnopqrstuvwxyz+
(PID.TID 0000.0001) //                  0.0: .
(PID.TID 0000.0001) // RANGE I (Lo:Hi:Step):(1015:1026:   1)
(PID.TID 0000.0001) // RANGE J (Lo:Hi:Step):(   6:  -1:  -1)
(PID.TID 0000.0001) // RANGE K (Lo:Hi:Step):(   1:   1:   1)
(PID.TID 0000.0001) // =======================================================
(PID.TID 0000.0001) Model domain too big to print to terminal - skipping I/O
(PID.TID 0000.0001) // =======================================================
(PID.TID 0000.0001) // Field Model Ro_surf (ini_masks_etc) tile    129 at iteration          1
(PID.TID 0000.0001) // CMIN =          1.000000000000000E+32
(PID.TID 0000.0001) // CMAX =         -1.000000000000000E+32
(PID.TID 0000.0001) // CINT =          0.000000000000000E+00
(PID.TID 0000.0001) // SYMBOLS (CMIN->CMAX): -abcdefghijklmnopqrstuvwxyz+
(PID.TID 0000.0001) //                  0.0: .
(PID.TID 0000.0001) // RANGE I (Lo:Hi:Step):(1023:1034:   1)
(PID.TID 0000.0001) // RANGE J (Lo:Hi:Step):(   6:  -1:  -1)
(PID.TID 0000.0001) // RANGE K (Lo:Hi:Step):(   1:   1:   1)
(PID.TID 0000.0001) // =======================================================
(PID.TID 0000.0001) Model domain too big to print to terminal - skipping I/O
(PID.TID 0000.0001) // =======================================================
(PID.TID 0000.0001) // Field Model Ro_surf (ini_masks_etc) tile    130 at iteration          1
(PID.TID 0000.0001) // CMIN =          1.000000000000000E+32
(PID.TID 0000.0001) // CMAX =         -1.000000000000000E+32
(PID.TID 0000.0001) // CINT =          0.000000000000000E+00
(PID.TID 0000.0001) // SYMBOLS (CMIN->CMAX): -abcdefghijklmnopqrstuvwxyz+
(PID.TID 0000.0001) //                  0.0: .
(PID.TID 0000.0001) // RANGE I (Lo:Hi:Step):(1031:1042:   1)
(PID.TID 0000.0001) // RANGE J (Lo:Hi:Step):(   6:  -1:  -1)
(PID.TID 0000.0001) // RANGE K (Lo:Hi:Step):(   1:   1:   1)
(PID.TID 0000.0001) // =======================================================
(PID.TID 0000.0001) Model domain too big to print to terminal - skipping I/O
(PID.TID 0000.0001) // =======================================================
(PID.TID 0000.0001) // Field Model Ro_surf (ini_masks_etc) tile    131 at iteration          1
(PID.TID 0000.0001) // CMIN =          1.000000000000000E+32
(PID.TID 0000.0001) // CMAX =         -1.000000000000000E+32
(PID.TID 0000.0001) // CINT =          0.000000000000000E+00
(PID.TID 0000.0001) // SYMBOLS (CMIN->CMAX): -abcdefghijklmnopqrstuvwxyz+
(PID.TID 0000.0001) //                  0.0: .
(PID.TID 0000.0001) // RANGE I (Lo:Hi:Step):(1039:1050:   1)
(PID.TID 0000.0001) // RANGE J (Lo:Hi:Step):(   6:  -1:  -1)
(PID.TID 0000.0001) // RANGE K (Lo:Hi:Step):(   1:   1:   1)
(PID.TID 0000.0001) // =======================================================
(PID.TID 0000.0001) Model domain too big to print to terminal - skipping I/O
(PID.TID 0000.0001) // =======================================================
(PID.TID 0000.0001) // Field Model Ro_surf (ini_masks_etc) tile    132 at iteration          1
(PID.TID 0000.0001) // CMIN =          1.000000000000000E+32
(PID.TID 0000.0001) // CMAX =         -1.000000000000000E+32
(PID.TID 0000.0001) // CINT =          0.000000000000000E+00
(PID.TID 0000.0001) // SYMBOLS (CMIN->CMAX): -abcdefghijklmnopqrstuvwxyz+
(PID.TID 0000.0001) //                  0.0: .
(PID.TID 0000.0001) // RANGE I (Lo:Hi:Step):(1047:1058:   1)
(PID.TID 0000.0001) // RANGE J (Lo:Hi:Step):(   6:  -1:  -1)
(PID.TID 0000.0001) // RANGE K (Lo:Hi:Step):(   1:   1:   1)
(PID.TID 0000.0001) // =======================================================
(PID.TID 0000.0001) Model domain too big to print to terminal - skipping I/O
(PID.TID 0000.0001) // =======================================================
(PID.TID 0000.0001) // Field Model Ro_surf (ini_masks_etc) tile    133 at iteration          1
(PID.TID 0000.0001) // CMIN =          1.000000000000000E+32
(PID.TID 0000.0001) // CMAX =         -1.000000000000000E+32
(PID.TID 0000.0001) // CINT =          0.000000000000000E+00
(PID.TID 0000.0001) // SYMBOLS (CMIN->CMAX): -abcdefghijklmnopqrstuvwxyz+
(PID.TID 0000.0001) //                  0.0: .
(PID.TID 0000.0001) // RANGE I (Lo:Hi:Step):(1055:1066:   1)
(PID.TID 0000.0001) // RANGE J (Lo:Hi:Step):(   6:  -1:  -1)
(PID.TID 0000.0001) // RANGE K (Lo:Hi:Step):(   1:   1:   1)
(PID.TID 0000.0001) // =======================================================
(PID.TID 0000.0001) Model domain too big to print to terminal - skipping I/O
(PID.TID 0000.0001) // =======================================================
(PID.TID 0000.0001) // Field Model Ro_surf (ini_masks_etc) tile    134 at iteration          1
(PID.TID 0000.0001) // CMIN =          1.000000000000000E+32
(PID.TID 0000.0001) // CMAX =         -1.000000000000000E+32
(PID.TID 0000.0001) // CINT =          0.000000000000000E+00
(PID.TID 0000.0001) // SYMBOLS (CMIN->CMAX): -abcdefghijklmnopqrstuvwxyz+
(PID.TID 0000.0001) //                  0.0: .
(PID.TID 0000.0001) // RANGE I (Lo:Hi:Step):(1063:1074:   1)
(PID.TID 0000.0001) // RANGE J (Lo:Hi:Step):(   6:  -1:  -1)
(PID.TID 0000.0001) // RANGE K (Lo:Hi:Step):(   1:   1:   1)
(PID.TID 0000.0001) // =======================================================
(PID.TID 0000.0001) Model domain too big to print to terminal - skipping I/O
(PID.TID 0000.0001) // =======================================================
(PID.TID 0000.0001) // Field Model Ro_surf (ini_masks_etc) tile    135 at iteration          1
(PID.TID 0000.0001) // CMIN =          1.000000000000000E+32
(PID.TID 0000.0001) // CMAX =         -1.000000000000000E+32
(PID.TID 0000.0001) // CINT =          0.000000000000000E+00
(PID.TID 0000.0001) // SYMBOLS (CMIN->CMAX): -abcdefghijklmnopqrstuvwxyz+
(PID.TID 0000.0001) //                  0.0: .
(PID.TID 0000.0001) // RANGE I (Lo:Hi:Step):(1071:1082:   1)
(PID.TID 0000.0001) // RANGE J (Lo:Hi:Step):(   6:  -1:  -1)
(PID.TID 0000.0001) // RANGE K (Lo:Hi:Step):(   1:   1:   1)
(PID.TID 0000.0001) // =======================================================
(PID.TID 0000.0001) Model domain too big to print to terminal - skipping I/O
(PID.TID 0000.0001) // =======================================================
(PID.TID 0000.0001) // Field Model Ro_surf (ini_masks_etc) tile    136 at iteration          1
(PID.TID 0000.0001) // CMIN =          1.000000000000000E+32
(PID.TID 0000.0001) // CMAX =         -1.000000000000000E+32
(PID.TID 0000.0001) // CINT =          0.000000000000000E+00
(PID.TID 0000.0001) // SYMBOLS (CMIN->CMAX): -abcdefghijklmnopqrstuvwxyz+
(PID.TID 0000.0001) //                  0.0: .
(PID.TID 0000.0001) // RANGE I (Lo:Hi:Step):(1079:1090:   1)
(PID.TID 0000.0001) // RANGE J (Lo:Hi:Step):(   6:  -1:  -1)
(PID.TID 0000.0001) // RANGE K (Lo:Hi:Step):(   1:   1:   1)
(PID.TID 0000.0001) // =======================================================
(PID.TID 0000.0001) Model domain too big to print to terminal - skipping I/O
(PID.TID 0000.0001) // =======================================================
(PID.TID 0000.0001) // Field Model Ro_surf (ini_masks_etc) tile    137 at iteration          1
(PID.TID 0000.0001) // CMIN =          1.000000000000000E+32
(PID.TID 0000.0001) // CMAX =         -1.000000000000000E+32
(PID.TID 0000.0001) // CINT =          0.000000000000000E+00
(PID.TID 0000.0001) // SYMBOLS (CMIN->CMAX): -abcdefghijklmnopqrstuvwxyz+
(PID.TID 0000.0001) //                  0.0: .
(PID.TID 0000.0001) // RANGE I (Lo:Hi:Step):(1087:1098:   1)
(PID.TID 0000.0001) // RANGE J (Lo:Hi:Step):(   6:  -1:  -1)
(PID.TID 0000.0001) // RANGE K (Lo:Hi:Step):(   1:   1:   1)
(PID.TID 0000.0001) // =======================================================
(PID.TID 0000.0001) Model domain too big to print to terminal - skipping I/O
(PID.TID 0000.0001) // =======================================================
(PID.TID 0000.0001) // Field Model Ro_surf (ini_masks_etc) tile    138 at iteration          1
(PID.TID 0000.0001) // CMIN =          1.000000000000000E+32
(PID.TID 0000.0001) // CMAX =         -1.000000000000000E+32
(PID.TID 0000.0001) // CINT =          0.000000000000000E+00
(PID.TID 0000.0001) // SYMBOLS (CMIN->CMAX): -abcdefghijklmnopqrstuvwxyz+
(PID.TID 0000.0001) //                  0.0: .
(PID.TID 0000.0001) // RANGE I (Lo:Hi:Step):(1095:1106:   1)
(PID.TID 0000.0001) // RANGE J (Lo:Hi:Step):(   6:  -1:  -1)
(PID.TID 0000.0001) // RANGE K (Lo:Hi:Step):(   1:   1:   1)
(PID.TID 0000.0001) // =======================================================
(PID.TID 0000.0001) Model domain too big to print to terminal - skipping I/O
(PID.TID 0000.0001) // =======================================================
(PID.TID 0000.0001) // Field Model Ro_surf (ini_masks_etc) tile    139 at iteration          1
(PID.TID 0000.0001) // CMIN =          1.000000000000000E+32
(PID.TID 0000.0001) // CMAX =         -1.000000000000000E+32
(PID.TID 0000.0001) // CINT =          0.000000000000000E+00
(PID.TID 0000.0001) // SYMBOLS (CMIN->CMAX): -abcdefghijklmnopqrstuvwxyz+
(PID.TID 0000.0001) //                  0.0: .
(PID.TID 0000.0001) // RANGE I (Lo:Hi:Step):(1103:1114:   1)
(PID.TID 0000.0001) // RANGE J (Lo:Hi:Step):(   6:  -1:  -1)
(PID.TID 0000.0001) // RANGE K (Lo:Hi:Step):(   1:   1:   1)
(PID.TID 0000.0001) // =======================================================
(PID.TID 0000.0001) Model domain too big to print to terminal - skipping I/O
(PID.TID 0000.0001) // =======================================================
(PID.TID 0000.0001) // Field Model Ro_surf (ini_masks_etc) tile    140 at iteration          1
(PID.TID 0000.0001) // CMIN =          1.000000000000000E+32
(PID.TID 0000.0001) // CMAX =         -1.000000000000000E+32
(PID.TID 0000.0001) // CINT =          0.000000000000000E+00
(PID.TID 0000.0001) // SYMBOLS (CMIN->CMAX): -abcdefghijklmnopqrstuvwxyz+
(PID.TID 0000.0001) //                  0.0: .
(PID.TID 0000.0001) // RANGE I (Lo:Hi:Step):(1111:1122:   1)
(PID.TID 0000.0001) // RANGE J (Lo:Hi:Step):(   6:  -1:  -1)
(PID.TID 0000.0001) // RANGE K (Lo:Hi:Step):(   1:   1:   1)
(PID.TID 0000.0001) // =======================================================
(PID.TID 0000.0001) Model domain too big to print to terminal - skipping I/O
(PID.TID 0000.0001) // =======================================================
(PID.TID 0000.0001) // Field Model Ro_surf (ini_masks_etc) tile    141 at iteration          1
(PID.TID 0000.0001) // CMIN =          1.000000000000000E+32
(PID.TID 0000.0001) // CMAX =         -1.000000000000000E+32
(PID.TID 0000.0001) // CINT =          0.000000000000000E+00
(PID.TID 0000.0001) // SYMBOLS (CMIN->CMAX): -abcdefghijklmnopqrstuvwxyz+
(PID.TID 0000.0001) //                  0.0: .
(PID.TID 0000.0001) // RANGE I (Lo:Hi:Step):(1119:1130:   1)
(PID.TID 0000.0001) // RANGE J (Lo:Hi:Step):(   6:  -1:  -1)
(PID.TID 0000.0001) // RANGE K (Lo:Hi:Step):(   1:   1:   1)
(PID.TID 0000.0001) // =======================================================
(PID.TID 0000.0001) Model domain too big to print to terminal - skipping I/O
(PID.TID 0000.0001) // =======================================================
(PID.TID 0000.0001) // Field Model Ro_surf (ini_masks_etc) tile    142 at iteration          1
(PID.TID 0000.0001) // CMIN =          1.000000000000000E+32
(PID.TID 0000.0001) // CMAX =         -1.000000000000000E+32
(PID.TID 0000.0001) // CINT =          0.000000000000000E+00
(PID.TID 0000.0001) // SYMBOLS (CMIN->CMAX): -abcdefghijklmnopqrstuvwxyz+
(PID.TID 0000.0001) //                  0.0: .
(PID.TID 0000.0001) // RANGE I (Lo:Hi:Step):(1127:1138:   1)
(PID.TID 0000.0001) // RANGE J (Lo:Hi:Step):(   6:  -1:  -1)
(PID.TID 0000.0001) // RANGE K (Lo:Hi:Step):(   1:   1:   1)
(PID.TID 0000.0001) // =======================================================
(PID.TID 0000.0001) Model domain too big to print to terminal - skipping I/O
(PID.TID 0000.0001) // =======================================================
(PID.TID 0000.0001) // Field Model Ro_surf (ini_masks_etc) tile    143 at iteration          1
(PID.TID 0000.0001) // CMIN =          1.000000000000000E+32
(PID.TID 0000.0001) // CMAX =         -1.000000000000000E+32
(PID.TID 0000.0001) // CINT =          0.000000000000000E+00
(PID.TID 0000.0001) // SYMBOLS (CMIN->CMAX): -abcdefghijklmnopqrstuvwxyz+
(PID.TID 0000.0001) //                  0.0: .
(PID.TID 0000.0001) // RANGE I (Lo:Hi:Step):(1135:1146:   1)
(PID.TID 0000.0001) // RANGE J (Lo:Hi:Step):(   6:  -1:  -1)
(PID.TID 0000.0001) // RANGE K (Lo:Hi:Step):(   1:   1:   1)
(PID.TID 0000.0001) // =======================================================
(PID.TID 0000.0001) Model domain too big to print to terminal - skipping I/O
(PID.TID 0000.0001) // =======================================================
(PID.TID 0000.0001) // Field Model Ro_surf (ini_masks_etc) tile    144 at iteration          1
(PID.TID 0000.0001) // CMIN =          1.000000000000000E+32
(PID.TID 0000.0001) // CMAX =         -1.000000000000000E+32
(PID.TID 0000.0001) // CINT =          0.000000000000000E+00
(PID.TID 0000.0001) // SYMBOLS (CMIN->CMAX): -abcdefghijklmnopqrstuvwxyz+
(PID.TID 0000.0001) //                  0.0: .
(PID.TID 0000.0001) // RANGE I (Lo:Hi:Step):(1143:1154:   1)
(PID.TID 0000.0001) // RANGE J (Lo:Hi:Step):(   6:  -1:  -1)
(PID.TID 0000.0001) // RANGE K (Lo:Hi:Step):(   1:   1:   1)
(PID.TID 0000.0001) // =======================================================
(PID.TID 0000.0001) Model domain too big to print to terminal - skipping I/O
(PID.TID 0000.0001) // =======================================================
(PID.TID 0000.0001) // Field Model Ro_surf (ini_masks_etc) tile    145 at iteration          1
(PID.TID 0000.0001) // CMIN =          1.000000000000000E+32
(PID.TID 0000.0001) // CMAX =         -1.000000000000000E+32
(PID.TID 0000.0001) // CINT =          0.000000000000000E+00
(PID.TID 0000.0001) // SYMBOLS (CMIN->CMAX): -abcdefghijklmnopqrstuvwxyz+
(PID.TID 0000.0001) //                  0.0: .
(PID.TID 0000.0001) // RANGE I (Lo:Hi:Step):(1151:1162:   1)
(PID.TID 0000.0001) // RANGE J (Lo:Hi:Step):(   6:  -1:  -1)
(PID.TID 0000.0001) // RANGE K (Lo:Hi:Step):(   1:   1:   1)
(PID.TID 0000.0001) // =======================================================
(PID.TID 0000.0001) Model domain too big to print to terminal - skipping I/O
(PID.TID 0000.0001) // =======================================================
(PID.TID 0000.0001) // Field Model Ro_surf (ini_masks_etc) tile    146 at iteration          1
(PID.TID 0000.0001) // CMIN =          1.000000000000000E+32
(PID.TID 0000.0001) // CMAX =         -1.000000000000000E+32
(PID.TID 0000.0001) // CINT =          0.000000000000000E+00
(PID.TID 0000.0001) // SYMBOLS (CMIN->CMAX): -abcdefghijklmnopqrstuvwxyz+
(PID.TID 0000.0001) //                  0.0: .
(PID.TID 0000.0001) // RANGE I (Lo:Hi:Step):(1159:1170:   1)
(PID.TID 0000.0001) // RANGE J (Lo:Hi:Step):(   6:  -1:  -1)
(PID.TID 0000.0001) // RANGE K (Lo:Hi:Step):(   1:   1:   1)
(PID.TID 0000.0001) // =======================================================
(PID.TID 0000.0001) Model domain too big to print to terminal - skipping I/O
(PID.TID 0000.0001) // =======================================================
(PID.TID 0000.0001) // Field Model Ro_surf (ini_masks_etc) tile    147 at iteration          1
(PID.TID 0000.0001) // CMIN =          1.000000000000000E+32
(PID.TID 0000.0001) // CMAX =         -1.000000000000000E+32
(PID.TID 0000.0001) // CINT =          0.000000000000000E+00
(PID.TID 0000.0001) // SYMBOLS (CMIN->CMAX): -abcdefghijklmnopqrstuvwxyz+
(PID.TID 0000.0001) //                  0.0: .
(PID.TID 0000.0001) // RANGE I (Lo:Hi:Step):(1167:1178:   1)
(PID.TID 0000.0001) // RANGE J (Lo:Hi:Step):(   6:  -1:  -1)
(PID.TID 0000.0001) // RANGE K (Lo:Hi:Step):(   1:   1:   1)
(PID.TID 0000.0001) // =======================================================
(PID.TID 0000.0001) Model domain too big to print to terminal - skipping I/O
(PID.TID 0000.0001) // =======================================================
(PID.TID 0000.0001) // Field Model Ro_surf (ini_masks_etc) tile    148 at iteration          1
(PID.TID 0000.0001) // CMIN =          1.000000000000000E+32
(PID.TID 0000.0001) // CMAX =         -1.000000000000000E+32
(PID.TID 0000.0001) // CINT =          0.000000000000000E+00
(PID.TID 0000.0001) // SYMBOLS (CMIN->CMAX): -abcdefghijklmnopqrstuvwxyz+
(PID.TID 0000.0001) //                  0.0: .
(PID.TID 0000.0001) // RANGE I (Lo:Hi:Step):(1175:1186:   1)
(PID.TID 0000.0001) // RANGE J (Lo:Hi:Step):(   6:  -1:  -1)
(PID.TID 0000.0001) // RANGE K (Lo:Hi:Step):(   1:   1:   1)
(PID.TID 0000.0001) // =======================================================
(PID.TID 0000.0001) Model domain too big to print to terminal - skipping I/O
(PID.TID 0000.0001) // =======================================================
(PID.TID 0000.0001) // Field Model Ro_surf (ini_masks_etc) tile    149 at iteration          1
(PID.TID 0000.0001) // CMIN =          1.000000000000000E+32
(PID.TID 0000.0001) // CMAX =         -1.000000000000000E+32
(PID.TID 0000.0001) // CINT =          0.000000000000000E+00
(PID.TID 0000.0001) // SYMBOLS (CMIN->CMAX): -abcdefghijklmnopqrstuvwxyz+
(PID.TID 0000.0001) //                  0.0: .
(PID.TID 0000.0001) // RANGE I (Lo:Hi:Step):(1183:1194:   1)
(PID.TID 0000.0001) // RANGE J (Lo:Hi:Step):(   6:  -1:  -1)
(PID.TID 0000.0001) // RANGE K (Lo:Hi:Step):(   1:   1:   1)
(PID.TID 0000.0001) // =======================================================
(PID.TID 0000.0001) Model domain too big to print to terminal - skipping I/O
(PID.TID 0000.0001) // =======================================================
(PID.TID 0000.0001) // Field Model Ro_surf (ini_masks_etc) tile    150 at iteration          1
(PID.TID 0000.0001) // CMIN =          1.000000000000000E+32
(PID.TID 0000.0001) // CMAX =         -1.000000000000000E+32
(PID.TID 0000.0001) // CINT =          0.000000000000000E+00
(PID.TID 0000.0001) // SYMBOLS (CMIN->CMAX): -abcdefghijklmnopqrstuvwxyz+
(PID.TID 0000.0001) //                  0.0: .
(PID.TID 0000.0001) // RANGE I (Lo:Hi:Step):(1191:1202:   1)
(PID.TID 0000.0001) // RANGE J (Lo:Hi:Step):(   6:  -1:  -1)
(PID.TID 0000.0001) // RANGE K (Lo:Hi:Step):(   1:   1:   1)
(PID.TID 0000.0001) // =======================================================
(PID.TID 0000.0001) Model domain too big to print to terminal - skipping I/O
(PID.TID 0000.0001) // =======================================================
(PID.TID 0000.0001) // Field Model Ro_surf (ini_masks_etc) tile    151 at iteration          1
(PID.TID 0000.0001) // CMIN =          1.000000000000000E+32
(PID.TID 0000.0001) // CMAX =         -1.000000000000000E+32
(PID.TID 0000.0001) // CINT =          0.000000000000000E+00
(PID.TID 0000.0001) // SYMBOLS (CMIN->CMAX): -abcdefghijklmnopqrstuvwxyz+
(PID.TID 0000.0001) //                  0.0: .
(PID.TID 0000.0001) // RANGE I (Lo:Hi:Step):(1199:1210:   1)
(PID.TID 0000.0001) // RANGE J (Lo:Hi:Step):(   6:  -1:  -1)
(PID.TID 0000.0001) // RANGE K (Lo:Hi:Step):(   1:   1:   1)
(PID.TID 0000.0001) // =======================================================
(PID.TID 0000.0001) Model domain too big to print to terminal - skipping I/O
(PID.TID 0000.0001) // =======================================================
(PID.TID 0000.0001) // Field Model Ro_surf (ini_masks_etc) tile    152 at iteration          1
(PID.TID 0000.0001) // CMIN =          1.000000000000000E+32
(PID.TID 0000.0001) // CMAX =         -1.000000000000000E+32
(PID.TID 0000.0001) // CINT =          0.000000000000000E+00
(PID.TID 0000.0001) // SYMBOLS (CMIN->CMAX): -abcdefghijklmnopqrstuvwxyz+
(PID.TID 0000.0001) //                  0.0: .
(PID.TID 0000.0001) // RANGE I (Lo:Hi:Step):(1207:1218:   1)
(PID.TID 0000.0001) // RANGE J (Lo:Hi:Step):(   6:  -1:  -1)
(PID.TID 0000.0001) // RANGE K (Lo:Hi:Step):(   1:   1:   1)
(PID.TID 0000.0001) // =======================================================
(PID.TID 0000.0001) Model domain too big to print to terminal - skipping I/O
(PID.TID 0000.0001) // =======================================================
(PID.TID 0000.0001) // Field Model Ro_surf (ini_masks_etc) tile    153 at iteration          1
(PID.TID 0000.0001) // CMIN =          1.000000000000000E+32
(PID.TID 0000.0001) // CMAX =         -1.000000000000000E+32
(PID.TID 0000.0001) // CINT =          0.000000000000000E+00
(PID.TID 0000.0001) // SYMBOLS (CMIN->CMAX): -abcdefghijklmnopqrstuvwxyz+
(PID.TID 0000.0001) //                  0.0: .
(PID.TID 0000.0001) // RANGE I (Lo:Hi:Step):(1215:1226:   1)
(PID.TID 0000.0001) // RANGE J (Lo:Hi:Step):(   6:  -1:  -1)
(PID.TID 0000.0001) // RANGE K (Lo:Hi:Step):(   1:   1:   1)
(PID.TID 0000.0001) // =======================================================
(PID.TID 0000.0001) Model domain too big to print to terminal - skipping I/O
(PID.TID 0000.0001) // =======================================================
(PID.TID 0000.0001) // Field Model Ro_surf (ini_masks_etc) tile    154 at iteration          1
(PID.TID 0000.0001) // CMIN =          1.000000000000000E+32
(PID.TID 0000.0001) // CMAX =         -1.000000000000000E+32
(PID.TID 0000.0001) // CINT =          0.000000000000000E+00
(PID.TID 0000.0001) // SYMBOLS (CMIN->CMAX): -abcdefghijklmnopqrstuvwxyz+
(PID.TID 0000.0001) //                  0.0: .
(PID.TID 0000.0001) // RANGE I (Lo:Hi:Step):(1223:1234:   1)
(PID.TID 0000.0001) // RANGE J (Lo:Hi:Step):(   6:  -1:  -1)
(PID.TID 0000.0001) // RANGE K (Lo:Hi:Step):(   1:   1:   1)
(PID.TID 0000.0001) // =======================================================
(PID.TID 0000.0001) Model domain too big to print to terminal - skipping I/O
(PID.TID 0000.0001) // =======================================================
(PID.TID 0000.0001) // Field Model Ro_surf (ini_masks_etc) tile    155 at iteration          1
(PID.TID 0000.0001) // CMIN =          1.000000000000000E+32
(PID.TID 0000.0001) // CMAX =         -1.000000000000000E+32
(PID.TID 0000.0001) // CINT =          0.000000000000000E+00
(PID.TID 0000.0001) // SYMBOLS (CMIN->CMAX): -abcdefghijklmnopqrstuvwxyz+
(PID.TID 0000.0001) //                  0.0: .
(PID.TID 0000.0001) // RANGE I (Lo:Hi:Step):(1231:1242:   1)
(PID.TID 0000.0001) // RANGE J (Lo:Hi:Step):(   6:  -1:  -1)
(PID.TID 0000.0001) // RANGE K (Lo:Hi:Step):(   1:   1:   1)
(PID.TID 0000.0001) // =======================================================
(PID.TID 0000.0001) Model domain too big to print to terminal - skipping I/O
(PID.TID 0000.0001) // =======================================================
(PID.TID 0000.0001) // Field Model Ro_surf (ini_masks_etc) tile    156 at iteration          1
(PID.TID 0000.0001) // CMIN =          1.000000000000000E+32
(PID.TID 0000.0001) // CMAX =         -1.000000000000000E+32
(PID.TID 0000.0001) // CINT =          0.000000000000000E+00
(PID.TID 0000.0001) // SYMBOLS (CMIN->CMAX): -abcdefghijklmnopqrstuvwxyz+
(PID.TID 0000.0001) //                  0.0: .
(PID.TID 0000.0001) // RANGE I (Lo:Hi:Step):(1239:1250:   1)
(PID.TID 0000.0001) // RANGE J (Lo:Hi:Step):(   6:  -1:  -1)
(PID.TID 0000.0001) // RANGE K (Lo:Hi:Step):(   1:   1:   1)
(PID.TID 0000.0001) // =======================================================
(PID.TID 0000.0001) Model domain too big to print to terminal - skipping I/O
(PID.TID 0000.0001) // =======================================================
(PID.TID 0000.0001) // Field Model Ro_surf (ini_masks_etc) tile    157 at iteration          1
(PID.TID 0000.0001) // CMIN =          1.000000000000000E+32
(PID.TID 0000.0001) // CMAX =         -1.000000000000000E+32
(PID.TID 0000.0001) // CINT =          0.000000000000000E+00
(PID.TID 0000.0001) // SYMBOLS (CMIN->CMAX): -abcdefghijklmnopqrstuvwxyz+
(PID.TID 0000.0001) //                  0.0: .
(PID.TID 0000.0001) // RANGE I (Lo:Hi:Step):(1247:1258:   1)
(PID.TID 0000.0001) // RANGE J (Lo:Hi:Step):(   6:  -1:  -1)
(PID.TID 0000.0001) // RANGE K (Lo:Hi:Step):(   1:   1:   1)
(PID.TID 0000.0001) // =======================================================
(PID.TID 0000.0001) Model domain too big to print to terminal - skipping I/O
(PID.TID 0000.0001) // =======================================================
(PID.TID 0000.0001) // Field Model Ro_surf (ini_masks_etc) tile    158 at iteration          1
(PID.TID 0000.0001) // CMIN =          1.000000000000000E+32
(PID.TID 0000.0001) // CMAX =         -1.000000000000000E+32
(PID.TID 0000.0001) // CINT =          0.000000000000000E+00
(PID.TID 0000.0001) // SYMBOLS (CMIN->CMAX): -abcdefghijklmnopqrstuvwxyz+
(PID.TID 0000.0001) //                  0.0: .
(PID.TID 0000.0001) // RANGE I (Lo:Hi:Step):(1255:1266:   1)
(PID.TID 0000.0001) // RANGE J (Lo:Hi:Step):(   6:  -1:  -1)
(PID.TID 0000.0001) // RANGE K (Lo:Hi:Step):(   1:   1:   1)
(PID.TID 0000.0001) // =======================================================
(PID.TID 0000.0001) Model domain too big to print to terminal - skipping I/O
(PID.TID 0000.0001) // =======================================================
(PID.TID 0000.0001) // Field Model Ro_surf (ini_masks_etc) tile    159 at iteration          1
(PID.TID 0000.0001) // CMIN =          1.000000000000000E+32
(PID.TID 0000.0001) // CMAX =         -1.000000000000000E+32
(PID.TID 0000.0001) // CINT =          0.000000000000000E+00
(PID.TID 0000.0001) // SYMBOLS (CMIN->CMAX): -abcdefghijklmnopqrstuvwxyz+
(PID.TID 0000.0001) //                  0.0: .
(PID.TID 0000.0001) // RANGE I (Lo:Hi:Step):(1263:1274:   1)
(PID.TID 0000.0001) // RANGE J (Lo:Hi:Step):(   6:  -1:  -1)
(PID.TID 0000.0001) // RANGE K (Lo:Hi:Step):(   1:   1:   1)
(PID.TID 0000.0001) // =======================================================
(PID.TID 0000.0001) Model domain too big to print to terminal - skipping I/O
(PID.TID 0000.0001) // =======================================================
(PID.TID 0000.0001) // Field Model Ro_surf (ini_masks_etc) tile    160 at iteration          1
(PID.TID 0000.0001) // CMIN =          1.000000000000000E+32
(PID.TID 0000.0001) // CMAX =         -1.000000000000000E+32
(PID.TID 0000.0001) // CINT =          0.000000000000000E+00
(PID.TID 0000.0001) // SYMBOLS (CMIN->CMAX): -abcdefghijklmnopqrstuvwxyz+
(PID.TID 0000.0001) //                  0.0: .
(PID.TID 0000.0001) // RANGE I (Lo:Hi:Step):(1271:1282:   1)
(PID.TID 0000.0001) // RANGE J (Lo:Hi:Step):(   6:  -1:  -1)
(PID.TID 0000.0001) // RANGE K (Lo:Hi:Step):(   1:   1:   1)
(PID.TID 0000.0001) // =======================================================
(PID.TID 0000.0001) Model domain too big to print to terminal - skipping I/O
(PID.TID 0000.0001) // =======================================================
(PID.TID 0000.0001) // Field Model Ro_surf (ini_masks_etc) tile    161 at iteration          1
(PID.TID 0000.0001) // CMIN =          1.000000000000000E+32
(PID.TID 0000.0001) // CMAX =         -1.000000000000000E+32
(PID.TID 0000.0001) // CINT =          0.000000000000000E+00
(PID.TID 0000.0001) // SYMBOLS (CMIN->CMAX): -abcdefghijklmnopqrstuvwxyz+
(PID.TID 0000.0001) //                  0.0: .
(PID.TID 0000.0001) // RANGE I (Lo:Hi:Step):(1279:1290:   1)
(PID.TID 0000.0001) // RANGE J (Lo:Hi:Step):(   6:  -1:  -1)
(PID.TID 0000.0001) // RANGE K (Lo:Hi:Step):(   1:   1:   1)
(PID.TID 0000.0001) // =======================================================
(PID.TID 0000.0001) Model domain too big to print to terminal - skipping I/O
(PID.TID 0000.0001) // =======================================================
(PID.TID 0000.0001) // Field Model Ro_surf (ini_masks_etc) tile    162 at iteration          1
(PID.TID 0000.0001) // CMIN =          1.000000000000000E+32
(PID.TID 0000.0001) // CMAX =         -1.000000000000000E+32
(PID.TID 0000.0001) // CINT =          0.000000000000000E+00
(PID.TID 0000.0001) // SYMBOLS (CMIN->CMAX): -abcdefghijklmnopqrstuvwxyz+
(PID.TID 0000.0001) //                  0.0: .
(PID.TID 0000.0001) // RANGE I (Lo:Hi:Step):(1287:1298:   1)
(PID.TID 0000.0001) // RANGE J (Lo:Hi:Step):(   6:  -1:  -1)
(PID.TID 0000.0001) // RANGE K (Lo:Hi:Step):(   1:   1:   1)
(PID.TID 0000.0001) // =======================================================
(PID.TID 0000.0001) Model domain too big to print to terminal - skipping I/O
(PID.TID 0000.0001) // =======================================================
(PID.TID 0000.0001) // Field Model Ro_surf (ini_masks_etc) tile    163 at iteration          1
(PID.TID 0000.0001) // CMIN =          1.000000000000000E+32
(PID.TID 0000.0001) // CMAX =         -1.000000000000000E+32
(PID.TID 0000.0001) // CINT =          0.000000000000000E+00
(PID.TID 0000.0001) // SYMBOLS (CMIN->CMAX): -abcdefghijklmnopqrstuvwxyz+
(PID.TID 0000.0001) //                  0.0: .
(PID.TID 0000.0001) // RANGE I (Lo:Hi:Step):(1295:1306:   1)
(PID.TID 0000.0001) // RANGE J (Lo:Hi:Step):(   6:  -1:  -1)
(PID.TID 0000.0001) // RANGE K (Lo:Hi:Step):(   1:   1:   1)
(PID.TID 0000.0001) // =======================================================
(PID.TID 0000.0001) Model domain too big to print to terminal - skipping I/O
(PID.TID 0000.0001) // =======================================================
(PID.TID 0000.0001) // Field Model Ro_surf (ini_masks_etc) tile    164 at iteration          1
(PID.TID 0000.0001) // CMIN =          1.000000000000000E+32
(PID.TID 0000.0001) // CMAX =         -1.000000000000000E+32
(PID.TID 0000.0001) // CINT =          0.000000000000000E+00
(PID.TID 0000.0001) // SYMBOLS (CMIN->CMAX): -abcdefghijklmnopqrstuvwxyz+
(PID.TID 0000.0001) //                  0.0: .
(PID.TID 0000.0001) // RANGE I (Lo:Hi:Step):(1303:1314:   1)
(PID.TID 0000.0001) // RANGE J (Lo:Hi:Step):(   6:  -1:  -1)
(PID.TID 0000.0001) // RANGE K (Lo:Hi:Step):(   1:   1:   1)
(PID.TID 0000.0001) // =======================================================
(PID.TID 0000.0001) Model domain too big to print to terminal - skipping I/O
(PID.TID 0000.0001) // =======================================================
(PID.TID 0000.0001) // Field Model Ro_surf (ini_masks_etc) tile    165 at iteration          1
(PID.TID 0000.0001) // CMIN =          1.000000000000000E+32
(PID.TID 0000.0001) // CMAX =         -1.000000000000000E+32
(PID.TID 0000.0001) // CINT =          0.000000000000000E+00
(PID.TID 0000.0001) // SYMBOLS (CMIN->CMAX): -abcdefghijklmnopqrstuvwxyz+
(PID.TID 0000.0001) //                  0.0: .
(PID.TID 0000.0001) // RANGE I (Lo:Hi:Step):(1311:1322:   1)
(PID.TID 0000.0001) // RANGE J (Lo:Hi:Step):(   6:  -1:  -1)
(PID.TID 0000.0001) // RANGE K (Lo:Hi:Step):(   1:   1:   1)
(PID.TID 0000.0001) // =======================================================
(PID.TID 0000.0001) Model domain too big to print to terminal - skipping I/O
(PID.TID 0000.0001) // =======================================================
(PID.TID 0000.0001) // Field Model Ro_surf (ini_masks_etc) tile    166 at iteration          1
(PID.TID 0000.0001) // CMIN =          1.000000000000000E+32
(PID.TID 0000.0001) // CMAX =         -1.000000000000000E+32
(PID.TID 0000.0001) // CINT =          0.000000000000000E+00
(PID.TID 0000.0001) // SYMBOLS (CMIN->CMAX): -abcdefghijklmnopqrstuvwxyz+
(PID.TID 0000.0001) //                  0.0: .
(PID.TID 0000.0001) // RANGE I (Lo:Hi:Step):(1319:1330:   1)
(PID.TID 0000.0001) // RANGE J (Lo:Hi:Step):(   6:  -1:  -1)
(PID.TID 0000.0001) // RANGE K (Lo:Hi:Step):(   1:   1:   1)
(PID.TID 0000.0001) // =======================================================
(PID.TID 0000.0001) Model domain too big to print to terminal - skipping I/O
(PID.TID 0000.0001) // =======================================================
(PID.TID 0000.0001) // Field Model Ro_surf (ini_masks_etc) tile    167 at iteration          1
(PID.TID 0000.0001) // CMIN =          1.000000000000000E+32
(PID.TID 0000.0001) // CMAX =         -1.000000000000000E+32
(PID.TID 0000.0001) // CINT =          0.000000000000000E+00
(PID.TID 0000.0001) // SYMBOLS (CMIN->CMAX): -abcdefghijklmnopqrstuvwxyz+
(PID.TID 0000.0001) //                  0.0: .
(PID.TID 0000.0001) // RANGE I (Lo:Hi:Step):(1327:1338:   1)
(PID.TID 0000.0001) // RANGE J (Lo:Hi:Step):(   6:  -1:  -1)
(PID.TID 0000.0001) // RANGE K (Lo:Hi:Step):(   1:   1:   1)
(PID.TID 0000.0001) // =======================================================
(PID.TID 0000.0001) Model domain too big to print to terminal - skipping I/O
(PID.TID 0000.0001) // =======================================================
(PID.TID 0000.0001) // Field Model Ro_surf (ini_masks_etc) tile    168 at iteration          1
(PID.TID 0000.0001) // CMIN =          1.000000000000000E+32
(PID.TID 0000.0001) // CMAX =         -1.000000000000000E+32
(PID.TID 0000.0001) // CINT =          0.000000000000000E+00
(PID.TID 0000.0001) // SYMBOLS (CMIN->CMAX): -abcdefghijklmnopqrstuvwxyz+
(PID.TID 0000.0001) //                  0.0: .
(PID.TID 0000.0001) // RANGE I (Lo:Hi:Step):(1335:1346:   1)
(PID.TID 0000.0001) // RANGE J (Lo:Hi:Step):(   6:  -1:  -1)
(PID.TID 0000.0001) // RANGE K (Lo:Hi:Step):(   1:   1:   1)
(PID.TID 0000.0001) // =======================================================
(PID.TID 0000.0001) Model domain too big to print to terminal - skipping I/O
(PID.TID 0000.0001) // =======================================================
(PID.TID 0000.0001) // Field Model Ro_surf (ini_masks_etc) tile    169 at iteration          1
(PID.TID 0000.0001) // CMIN =          1.000000000000000E+32
(PID.TID 0000.0001) // CMAX =         -1.000000000000000E+32
(PID.TID 0000.0001) // CINT =          0.000000000000000E+00
(PID.TID 0000.0001) // SYMBOLS (CMIN->CMAX): -abcdefghijklmnopqrstuvwxyz+
(PID.TID 0000.0001) //                  0.0: .
(PID.TID 0000.0001) // RANGE I (Lo:Hi:Step):(1343:1354:   1)
(PID.TID 0000.0001) // RANGE J (Lo:Hi:Step):(   6:  -1:  -1)
(PID.TID 0000.0001) // RANGE K (Lo:Hi:Step):(   1:   1:   1)
(PID.TID 0000.0001) // =======================================================
(PID.TID 0000.0001) Model domain too big to print to terminal - skipping I/O
(PID.TID 0000.0001) // =======================================================
(PID.TID 0000.0001) // Field Model Ro_surf (ini_masks_etc) tile    170 at iteration          1
(PID.TID 0000.0001) // CMIN =          1.000000000000000E+32
(PID.TID 0000.0001) // CMAX =         -1.000000000000000E+32
(PID.TID 0000.0001) // CINT =          0.000000000000000E+00
(PID.TID 0000.0001) // SYMBOLS (CMIN->CMAX): -abcdefghijklmnopqrstuvwxyz+
(PID.TID 0000.0001) //                  0.0: .
(PID.TID 0000.0001) // RANGE I (Lo:Hi:Step):(1351:1362:   1)
(PID.TID 0000.0001) // RANGE J (Lo:Hi:Step):(   6:  -1:  -1)
(PID.TID 0000.0001) // RANGE K (Lo:Hi:Step):(   1:   1:   1)
(PID.TID 0000.0001) // =======================================================
(PID.TID 0000.0001) Model domain too big to print to terminal - skipping I/O
(PID.TID 0000.0001) // =======================================================
(PID.TID 0000.0001) // Field Model Ro_surf (ini_masks_etc) tile    171 at iteration          1
(PID.TID 0000.0001) // CMIN =          1.000000000000000E+32
(PID.TID 0000.0001) // CMAX =         -1.000000000000000E+32
(PID.TID 0000.0001) // CINT =          0.000000000000000E+00
(PID.TID 0000.0001) // SYMBOLS (CMIN->CMAX): -abcdefghijklmnopqrstuvwxyz+
(PID.TID 0000.0001) //                  0.0: .
(PID.TID 0000.0001) // RANGE I (Lo:Hi:Step):(1359:1370:   1)
(PID.TID 0000.0001) // RANGE J (Lo:Hi:Step):(   6:  -1:  -1)
(PID.TID 0000.0001) // RANGE K (Lo:Hi:Step):(   1:   1:   1)
(PID.TID 0000.0001) // =======================================================
(PID.TID 0000.0001) Model domain too big to print to terminal - skipping I/O
(PID.TID 0000.0001) // =======================================================
(PID.TID 0000.0001) // Field Model Ro_surf (ini_masks_etc) tile    172 at iteration          1
(PID.TID 0000.0001) // CMIN =          1.000000000000000E+32
(PID.TID 0000.0001) // CMAX =         -1.000000000000000E+32
(PID.TID 0000.0001) // CINT =          0.000000000000000E+00
(PID.TID 0000.0001) // SYMBOLS (CMIN->CMAX): -abcdefghijklmnopqrstuvwxyz+
(PID.TID 0000.0001) //                  0.0: .
(PID.TID 0000.0001) // RANGE I (Lo:Hi:Step):(1367:1378:   1)
(PID.TID 0000.0001) // RANGE J (Lo:Hi:Step):(   6:  -1:  -1)
(PID.TID 0000.0001) // RANGE K (Lo:Hi:Step):(   1:   1:   1)
(PID.TID 0000.0001) // =======================================================
(PID.TID 0000.0001) Model domain too big to print to terminal - skipping I/O
(PID.TID 0000.0001) // =======================================================
(PID.TID 0000.0001) // Field Model Ro_surf (ini_masks_etc) tile    173 at iteration          1
(PID.TID 0000.0001) // CMIN =          1.000000000000000E+32
(PID.TID 0000.0001) // CMAX =         -1.000000000000000E+32
(PID.TID 0000.0001) // CINT =          0.000000000000000E+00
(PID.TID 0000.0001) // SYMBOLS (CMIN->CMAX): -abcdefghijklmnopqrstuvwxyz+
(PID.TID 0000.0001) //                  0.0: .
(PID.TID 0000.0001) // RANGE I (Lo:Hi:Step):(1375:1386:   1)
(PID.TID 0000.0001) // RANGE J (Lo:Hi:Step):(   6:  -1:  -1)
(PID.TID 0000.0001) // RANGE K (Lo:Hi:Step):(   1:   1:   1)
(PID.TID 0000.0001) // =======================================================
(PID.TID 0000.0001) Model domain too big to print to terminal - skipping I/O
(PID.TID 0000.0001) // =======================================================
(PID.TID 0000.0001) // Field Model Ro_surf (ini_masks_etc) tile    174 at iteration          1
(PID.TID 0000.0001) // CMIN =          1.000000000000000E+32
(PID.TID 0000.0001) // CMAX =         -1.000000000000000E+32
(PID.TID 0000.0001) // CINT =          0.000000000000000E+00
(PID.TID 0000.0001) // SYMBOLS (CMIN->CMAX): -abcdefghijklmnopqrstuvwxyz+
(PID.TID 0000.0001) //                  0.0: .
(PID.TID 0000.0001) // RANGE I (Lo:Hi:Step):(1383:1394:   1)
(PID.TID 0000.0001) // RANGE J (Lo:Hi:Step):(   6:  -1:  -1)
(PID.TID 0000.0001) // RANGE K (Lo:Hi:Step):(   1:   1:   1)
(PID.TID 0000.0001) // =======================================================
(PID.TID 0000.0001) Model domain too big to print to terminal - skipping I/O
(PID.TID 0000.0001) // =======================================================
(PID.TID 0000.0001) // Field Model Ro_surf (ini_masks_etc) tile    175 at iteration          1
(PID.TID 0000.0001) // CMIN =          1.000000000000000E+32
(PID.TID 0000.0001) // CMAX =         -1.000000000000000E+32
(PID.TID 0000.0001) // CINT =          0.000000000000000E+00
(PID.TID 0000.0001) // SYMBOLS (CMIN->CMAX): -abcdefghijklmnopqrstuvwxyz+
(PID.TID 0000.0001) //                  0.0: .
(PID.TID 0000.0001) // RANGE I (Lo:Hi:Step):(1391:1402:   1)
(PID.TID 0000.0001) // RANGE J (Lo:Hi:Step):(   6:  -1:  -1)
(PID.TID 0000.0001) // RANGE K (Lo:Hi:Step):(   1:   1:   1)
(PID.TID 0000.0001) // =======================================================
(PID.TID 0000.0001) Model domain too big to print to terminal - skipping I/O
(PID.TID 0000.0001) // =======================================================
(PID.TID 0000.0001) // Field Model Ro_surf (ini_masks_etc) tile    176 at iteration          1
(PID.TID 0000.0001) // CMIN =          1.000000000000000E+32
(PID.TID 0000.0001) // CMAX =         -1.000000000000000E+32
(PID.TID 0000.0001) // CINT =          0.000000000000000E+00
(PID.TID 0000.0001) // SYMBOLS (CMIN->CMAX): -abcdefghijklmnopqrstuvwxyz+
(PID.TID 0000.0001) //                  0.0: .
(PID.TID 0000.0001) // RANGE I (Lo:Hi:Step):(1399:1410:   1)
(PID.TID 0000.0001) // RANGE J (Lo:Hi:Step):(   6:  -1:  -1)
(PID.TID 0000.0001) // RANGE K (Lo:Hi:Step):(   1:   1:   1)
(PID.TID 0000.0001) // =======================================================
(PID.TID 0000.0001) Model domain too big to print to terminal - skipping I/O
(PID.TID 0000.0001) // =======================================================
(PID.TID 0000.0001) // Field Model Ro_surf (ini_masks_etc) tile    177 at iteration          1
(PID.TID 0000.0001) // CMIN =          1.000000000000000E+32
(PID.TID 0000.0001) // CMAX =         -1.000000000000000E+32
(PID.TID 0000.0001) // CINT =          0.000000000000000E+00
(PID.TID 0000.0001) // SYMBOLS (CMIN->CMAX): -abcdefghijklmnopqrstuvwxyz+
(PID.TID 0000.0001) //                  0.0: .
(PID.TID 0000.0001) // RANGE I (Lo:Hi:Step):(1407:1418:   1)
(PID.TID 0000.0001) // RANGE J (Lo:Hi:Step):(   6:  -1:  -1)
(PID.TID 0000.0001) // RANGE K (Lo:Hi:Step):(   1:   1:   1)
(PID.TID 0000.0001) // =======================================================
(PID.TID 0000.0001) Model domain too big to print to terminal - skipping I/O
(PID.TID 0000.0001) // =======================================================
(PID.TID 0000.0001) // Field Model Ro_surf (ini_masks_etc) tile    178 at iteration          1
(PID.TID 0000.0001) // CMIN =          1.000000000000000E+32
(PID.TID 0000.0001) // CMAX =         -1.000000000000000E+32
(PID.TID 0000.0001) // CINT =          0.000000000000000E+00
(PID.TID 0000.0001) // SYMBOLS (CMIN->CMAX): -abcdefghijklmnopqrstuvwxyz+
(PID.TID 0000.0001) //                  0.0: .
(PID.TID 0000.0001) // RANGE I (Lo:Hi:Step):(1415:1426:   1)
(PID.TID 0000.0001) // RANGE J (Lo:Hi:Step):(   6:  -1:  -1)
(PID.TID 0000.0001) // RANGE K (Lo:Hi:Step):(   1:   1:   1)
(PID.TID 0000.0001) // =======================================================
(PID.TID 0000.0001) Model domain too big to print to terminal - skipping I/O
(PID.TID 0000.0001) // =======================================================
(PID.TID 0000.0001) // Field Model Ro_surf (ini_masks_etc) tile    179 at iteration          1
(PID.TID 0000.0001) // CMIN =          1.000000000000000E+32
(PID.TID 0000.0001) // CMAX =         -1.000000000000000E+32
(PID.TID 0000.0001) // CINT =          0.000000000000000E+00
(PID.TID 0000.0001) // SYMBOLS (CMIN->CMAX): -abcdefghijklmnopqrstuvwxyz+
(PID.TID 0000.0001) //                  0.0: .
(PID.TID 0000.0001) // RANGE I (Lo:Hi:Step):(1423:1434:   1)
(PID.TID 0000.0001) // RANGE J (Lo:Hi:Step):(   6:  -1:  -1)
(PID.TID 0000.0001) // RANGE K (Lo:Hi:Step):(   1:   1:   1)
(PID.TID 0000.0001) // =======================================================
(PID.TID 0000.0001) Model domain too big to print to terminal - skipping I/O
(PID.TID 0000.0001) // =======================================================
(PID.TID 0000.0001) // Field Model Ro_surf (ini_masks_etc) tile    180 at iteration          1
(PID.TID 0000.0001) // CMIN =          1.000000000000000E+32
(PID.TID 0000.0001) // CMAX =         -1.000000000000000E+32
(PID.TID 0000.0001) // CINT =          0.000000000000000E+00
(PID.TID 0000.0001) // SYMBOLS (CMIN->CMAX): -abcdefghijklmnopqrstuvwxyz+
(PID.TID 0000.0001) //                  0.0: .
(PID.TID 0000.0001) // RANGE I (Lo:Hi:Step):(1431:1442:   1)
(PID.TID 0000.0001) // RANGE J (Lo:Hi:Step):(   6:  -1:  -1)
(PID.TID 0000.0001) // RANGE K (Lo:Hi:Step):(   1:   1:   1)
(PID.TID 0000.0001) // =======================================================
(PID.TID 0000.0001) Model domain too big to print to terminal - skipping I/O
(PID.TID 0000.0001) // =======================================================
(PID.TID 0000.0001) // Field Model Ro_surf (ini_masks_etc) tile    181 at iteration          1
(PID.TID 0000.0001) // CMIN =          1.000000000000000E+32
(PID.TID 0000.0001) // CMAX =         -1.000000000000000E+32
(PID.TID 0000.0001) // CINT =          0.000000000000000E+00
(PID.TID 0000.0001) // SYMBOLS (CMIN->CMAX): -abcdefghijklmnopqrstuvwxyz+
(PID.TID 0000.0001) //                  0.0: .
(PID.TID 0000.0001) // RANGE I (Lo:Hi:Step):(1439:1450:   1)
(PID.TID 0000.0001) // RANGE J (Lo:Hi:Step):(   6:  -1:  -1)
(PID.TID 0000.0001) // RANGE K (Lo:Hi:Step):(   1:   1:   1)
(PID.TID 0000.0001) // =======================================================
(PID.TID 0000.0001) Model domain too big to print to terminal - skipping I/O
(PID.TID 0000.0001) // =======================================================
(PID.TID 0000.0001) // Field Model Ro_surf (ini_masks_etc) tile    182 at iteration          1
(PID.TID 0000.0001) // CMIN =          1.000000000000000E+32
(PID.TID 0000.0001) // CMAX =         -1.000000000000000E+32
(PID.TID 0000.0001) // CINT =          0.000000000000000E+00
(PID.TID 0000.0001) // SYMBOLS (CMIN->CMAX): -abcdefghijklmnopqrstuvwxyz+
(PID.TID 0000.0001) //                  0.0: .
(PID.TID 0000.0001) // RANGE I (Lo:Hi:Step):(1447:1458:   1)
(PID.TID 0000.0001) // RANGE J (Lo:Hi:Step):(   6:  -1:  -1)
(PID.TID 0000.0001) // RANGE K (Lo:Hi:Step):(   1:   1:   1)
(PID.TID 0000.0001) // =======================================================
(PID.TID 0000.0001) Model domain too big to print to terminal - skipping I/O
(PID.TID 0000.0001) // =======================================================
(PID.TID 0000.0001) // Field Model Ro_surf (ini_masks_etc) tile    183 at iteration          1
(PID.TID 0000.0001) // CMIN =          1.000000000000000E+32
(PID.TID 0000.0001) // CMAX =         -1.000000000000000E+32
(PID.TID 0000.0001) // CINT =          0.000000000000000E+00
(PID.TID 0000.0001) // SYMBOLS (CMIN->CMAX): -abcdefghijklmnopqrstuvwxyz+
(PID.TID 0000.0001) //                  0.0: .
(PID.TID 0000.0001) // RANGE I (Lo:Hi:Step):(1455:1466:   1)
(PID.TID 0000.0001) // RANGE J (Lo:Hi:Step):(   6:  -1:  -1)
(PID.TID 0000.0001) // RANGE K (Lo:Hi:Step):(   1:   1:   1)
(PID.TID 0000.0001) // =======================================================
(PID.TID 0000.0001) Model domain too big to print to terminal - skipping I/O
(PID.TID 0000.0001) // =======================================================
(PID.TID 0000.0001) // Field Model Ro_surf (ini_masks_etc) tile    184 at iteration          1
(PID.TID 0000.0001) // CMIN =          1.000000000000000E+32
(PID.TID 0000.0001) // CMAX =         -1.000000000000000E+32
(PID.TID 0000.0001) // CINT =          0.000000000000000E+00
(PID.TID 0000.0001) // SYMBOLS (CMIN->CMAX): -abcdefghijklmnopqrstuvwxyz+
(PID.TID 0000.0001) //                  0.0: .
(PID.TID 0000.0001) // RANGE I (Lo:Hi:Step):(1463:1474:   1)
(PID.TID 0000.0001) // RANGE J (Lo:Hi:Step):(   6:  -1:  -1)
(PID.TID 0000.0001) // RANGE K (Lo:Hi:Step):(   1:   1:   1)
(PID.TID 0000.0001) // =======================================================
(PID.TID 0000.0001) Model domain too big to print to terminal - skipping I/O
(P Empty tile number  20 1
 Empty tile number  23 1
 Empty tile number  40 1
 Empty tile number  59 1
 Empty tile number  61 1
 Empty tile number  62 1
 Empty tile number  63 1
 Empty tile number  65 1
 Empty tile number  66 1
 Empty tile number  67 1
 Empty tile number  70 1
 Empty tile number  71 1
 Empty tile number  91 1
 Empty tile number  95 1
 Empty tile number  155 1
 Empty tile number  159 1
ID.TID 0000.0001) // =======================================================
(PID.TID 0000.0001) // Field Model Ro_surf (ini_masks_etc) tile    185 at iteration          1
(PID.TID 0000.0001) // CMIN =          1.000000000000000E+32
(PID.TID 0000.0001) // CMAX =         -1.000000000000000E+32
(PID.TID 0000.0001) // CINT =          0.000000000000000E+00
(PID.TID 0000.0001) // SYMBOLS (CMIN->CMAX): -abcdefghijklmnopqrstuvwxyz+
(PID.TID 0000.0001) //                  0.0: .
(PID.TID 0000.0001) // RANGE I (Lo:Hi:Step):(1471:1482:   1)
(PID.TID 0000.0001) // RANGE J (Lo:Hi:Step):(   6:  -1:  -1)
(PID.TID 0000.0001) // RANGE K (Lo:Hi:Step):(   1:   1:   1)
(PID.TID 0000.0001) // =======================================================
(PID.TID 0000.0001) Model domain too big to print to terminal - skipping I/O
(PID.TID 0000.0001) // =======================================================
(PID.TID 0000.0001) // Field Model Ro_surf (ini_masks_etc) tile    186 at iteration          1
(PID.TID 0000.0001) // CMIN =          1.000000000000000E+32
(PID.TID 0000.0001) // CMAX =         -1.000000000000000E+32
(PID.TID 0000.0001) // CINT =          0.000000000000000E+00
(PID.TID 0000.0001) // SYMBOLS (CMIN->CMAX): -abcdefghijklmnopqrstuvwxyz+
(PID.TID 0000.0001) //                  0.0: .
(PID.TID 0000.0001) // RANGE I (Lo:Hi:Step):(1479:1490:   1)
(PID.TID 0000.0001) // RANGE J (Lo:Hi:Step):(   6:  -1:  -1)
(PID.TID 0000.0001) // RANGE K (Lo:Hi:Step):(   1:   1:   1)
(PID.TID 0000.0001) // =======================================================
(PID.TID 0000.0001) Model domain too big to print to terminal - skipping I/O
(PID.TID 0000.0001) // =======================================================
(PID.TID 0000.0001) // Field Model Ro_surf (ini_masks_etc) tile    187 at iteration          1
(PID.TID 0000.0001) // CMIN =          1.000000000000000E+32
(PID.TID 0000.0001) // CMAX =         -1.000000000000000E+32
(PID.TID 0000.0001) // CINT =          0.000000000000000E+00
(PID.TID 0000.0001) // SYMBOLS (CMIN->CMAX): -abcdefghijklmnopqrstuvwxyz+
(PID.TID 0000.0001) //                  0.0: .
(PID.TID 0000.0001) // RANGE I (Lo:Hi:Step):(1487:1498:   1)
(PID.TID 0000.0001) // RANGE J (Lo:Hi:Step):(   6:  -1:  -1)
(PID.TID 0000.0001) // RANGE K (Lo:Hi:Step):(   1:   1:   1)
(PID.TID 0000.0001) // =======================================================
(PID.TID 0000.0001) Model domain too big to print to terminal - skipping I/O
(PID.TID 0000.0001) // =======================================================
(PID.TID 0000.0001) // Field Model Ro_surf (ini_masks_etc) tile    188 at iteration          1
(PID.TID 0000.0001) // CMIN =          1.000000000000000E+32
(PID.TID 0000.0001) // CMAX =         -1.000000000000000E+32
(PID.TID 0000.0001) // CINT =          0.000000000000000E+00
(PID.TID 0000.0001) // SYMBOLS (CMIN->CMAX): -abcdefghijklmnopqrstuvwxyz+
(PID.TID 0000.0001) //                  0.0: .
(PID.TID 0000.0001) // RANGE I (Lo:Hi:Step):(1495:1506:   1)
(PID.TID 0000.0001) // RANGE J (Lo:Hi:Step):(   6:  -1:  -1)
(PID.TID 0000.0001) // RANGE K (Lo:Hi:Step):(   1:   1:   1)
(PID.TID 0000.0001) // =======================================================
(PID.TID 0000.0001) Model domain too big to print to terminal - skipping I/O
(PID.TID 0000.0001) // =======================================================
(PID.TID 0000.0001) // Field Model Ro_surf (ini_masks_etc) tile    189 at iteration          1
(PID.TID 0000.0001) // CMIN =          1.000000000000000E+32
(PID.TID 0000.0001) // CMAX =         -1.000000000000000E+32
(PID.TID 0000.0001) // CINT =          0.000000000000000E+00
(PID.TID 0000.0001) // SYMBOLS (CMIN->CMAX): -abcdefghijklmnopqrstuvwxyz+
(PID.TID 0000.0001) //                  0.0: .
(PID.TID 0000.0001) // RANGE I (Lo:Hi:Step):(1503:1514:   1)
(PID.TID 0000.0001) // RANGE J (Lo:Hi:Step):(   6:  -1:  -1)
(PID.TID 0000.0001) // RANGE K (Lo:Hi:Step):(   1:   1:   1)
(PID.TID 0000.0001) // =======================================================
(PID.TID 0000.0001) Model domain too big to print to terminal - skipping I/O
(PID.TID 0000.0001) // =======================================================
(PID.TID 0000.0001) // Field Model Ro_surf (ini_masks_etc) tile    190 at iteration          1
(PID.TID 0000.0001) // CMIN =          1.000000000000000E+32
(PID.TID 0000.0001) // CMAX =         -1.000000000000000E+32
(PID.TID 0000.0001) // CINT =          0.000000000000000E+00
(PID.TID 0000.0001) // SYMBOLS (CMIN->CMAX): -abcdefghijklmnopqrstuvwxyz+
(PID.TID 0000.0001) //                  0.0: .
(PID.TID 0000.0001) // RANGE I (Lo:Hi:Step):(1511:1522:   1)
(PID.TID 0000.0001) // RANGE J (Lo:Hi:Step):(   6:  -1:  -1)
(PID.TID 0000.0001) // RANGE K (Lo:Hi:Step):(   1:   1:   1)
(PID.TID 0000.0001) // =======================================================
(PID.TID 0000.0001) Model domain too big to print to terminal - skipping I/O
(PID.TID 0000.0001) // =======================================================
(PID.TID 0000.0001) // Field Model Ro_surf (ini_masks_etc) tile    191 at iteration          1
(PID.TID 0000.0001) // CMIN =          1.000000000000000E+32
(PID.TID 0000.0001) // CMAX =         -1.000000000000000E+32
(PID.TID 0000.0001) // CINT =          0.000000000000000E+00
(PID.TID 0000.0001) // SYMBOLS (CMIN->CMAX): -abcdefghijklmnopqrstuvwxyz+
(PID.TID 0000.0001) //                  0.0: .
(PID.TID 0000.0001) // RANGE I (Lo:Hi:Step):(1519:1530:   1)
(PID.TID 0000.0001) // RANGE J (Lo:Hi:Step):(   6:  -1:  -1)
(PID.TID 0000.0001) // RANGE K (Lo:Hi:Step):(   1:   1:   1)
(PID.TID 0000.0001) // =======================================================
(PID.TID 0000.0001) Model domain too big to print to terminal - skipping I/O
(PID.TID 0000.0001) // =======================================================
(PID.TID 0000.0001) // Field Model Ro_surf (ini_masks_etc) tile    192 at iteration          1
(PID.TID 0000.0001) // CMIN =          1.000000000000000E+32
(PID.TID 0000.0001) // CMAX =         -1.000000000000000E+32
(PID.TID 0000.0001) // CINT =          0.000000000000000E+00
(PID.TID 0000.0001) // SYMBOLS (CMIN->CMAX): -abcdefghijklmnopqrstuvwxyz+
(PID.TID 0000.0001) //                  0.0: .
(PID.TID 0000.0001) // RANGE I (Lo:Hi:Step):(1527:1538:   1)
(PID.TID 0000.0001) // RANGE J (Lo:Hi:Step):(   6:  -1:  -1)
(PID.TID 0000.0001) // RANGE K (Lo:Hi:Step):(   1:   1:   1)
(PID.TID 0000.0001) // =======================================================
(PID.TID 0000.0001) Model domain too big to print to terminal - skipping I/O
(PID.TID 0000.0001) // =======================================================
(PID.TID 0000.0001) // Field hFacC at iteration          1
(PID.TID 0000.0001) // CMIN =          1.000000000000000E+00
(PID.TID 0000.0001) // CMAX =          1.000000000000000E+00
(PID.TID 0000.0001) // CINT =          0.000000000000000E+00
(PID.TID 0000.0001) // SYMBOLS (CMIN->CMAX): -abcdefghijklmnopqrstuvwxyz+
(PID.TID 0000.0001) //                  0.0: .
(PID.TID 0000.0001) // RANGE I (Lo:Hi:Step):(  -1:1538:   1)
(PID.TID 0000.0001) // RANGE J (Lo:Hi:Step):(   6:  -1:  -1)
(PID.TID 0000.0001) // RANGE K (Lo:Hi:Step):(   1:   1:   1)
(PID.TID 0000.0001) // =======================================================
(PID.TID 0000.0001) Model domain too big to print to terminal - skipping I/O
(PID.TID 0000.0001) // =======================================================
(PID.TID 0000.0001) // Field hFacW at iteration          1
(PID.TID 0000.0001) // CMIN =          1.000000000000000E+00
(PID.TID 0000.0001) // CMAX =          1.000000000000000E+00
(PID.TID 0000.0001) // CINT =          0.000000000000000E+00
(PID.TID 0000.0001) // SYMBOLS (CMIN->CMAX): -abcdefghijklmnopqrstuvwxyz+
(PID.TID 0000.0001) //                  0.0: .
(PID.TID 0000.0001) // RANGE I (Lo:Hi:Step):(  -1:1538:   1)
(PID.TID 0000.0001) // RANGE J (Lo:Hi:Step):(   6:  -1:  -1)
(PID.TID 0000.0001) // RANGE K (Lo:Hi:Step):(   1:   1:   1)
(PID.TID 0000.0001) // =======================================================
(PID.TID 0000.0001) Model domain too big to print to terminal - skipping I/O
(PID.TID 0000.0001) // =======================================================
(PID.TID 0000.0001) // Field hFacS at iteration          1
(PID.TID 0000.0001) // CMIN =          1.000000000000000E+00
(PID.TID 0000.0001) // CMAX =          1.000000000000000E+00
(PID.TID 0000.0001) // CINT =          0.000000000000000E+00
(PID.TID 0000.0001) // SYMBOLS (CMIN->CMAX): -abcdefghijklmnopqrstuvwxyz+
(PID.TID 0000.0001) //                  0.0: .
(PID.TID 0000.0001) // RANGE I (Lo:Hi:Step):(  -1:1538:   1)
(PID.TID 0000.0001) // RANGE J (Lo:Hi:Step):(   6:  -1:  -1)
(PID.TID 0000.0001) // RANGE K (Lo:Hi:Step):(   1:   1:   1)
(PID.TID 0000.0001) // =======================================================
(PID.TID 0000.0001) Model domain too big to print to terminal - skipping I/O
(PID.TID 0000.0001)  PACKAGES_BOOT: opening data.pkg
(PID.TID 0000.0001)  OPEN_COPY_DATA_FILE: opening file data.pkg
(PID.TID 0000.0001) // =======================================================
(PID.TID 0000.0001) // Parameter file "data.pkg"
(PID.TID 0000.0001) // =======================================================
(PID.TID 0000.0001) ># Packages
(PID.TID 0000.0001) > &PACKAGES
(PID.TID 0000.0001) > useGMRedi=.TRUE.,
(PID.TID 0000.0001) >#useBulkforce=.TRUE.,
(PID.TID 0000.0001) >#useThermSeaIce=.TRUE.,
(PID.TID 0000.0001) > &
(PID.TID 0000.0001) 
(PID.TID 0000.0001)  PACKAGES_BOOT: finished reading data.pkg
(PID.TID 0000.0001)  GM_READPARMS: opening data.gmredi
(PID.TID 0000.0001)  OPEN_COPY_DATA_FILE: opening file data.gmredi
(PID.TID 0000.0001) // =======================================================
(PID.TID 0000.0001) // Parameter file "data.gmredi"
(PID.TID 0000.0001) // =======================================================
(PID.TID 0000.0001) ># GM+Redi package parameters:
(PID.TID 0000.0001) >
(PID.TID 0000.0001) >#-from MOM :
(PID.TID 0000.0001) ># GM_background_K: 	G & Mc.W  diffusion coefficient
(PID.TID 0000.0001) ># GM_maxSlope    :	max slope of isopycnals
(PID.TID 0000.0001) ># GM_Scrit       :	transition for scaling diffusion coefficient
(PID.TID 0000.0001) ># GM_Sd          :	half width scaling for diffusion coefficient
(PID.TID 0000.0001) ># GM_taper_scheme:	slope clipping or one of the tapering schemes
(PID.TID 0000.0001) ># GM_Kmin_horiz  :	horizontal diffusion minimum value
(PID.TID 0000.0001) >
(PID.TID 0000.0001) >#-Option parameters (needs to "define" options in GMREDI_OPTIONS.h")
(PID.TID 0000.0001) ># GM_isopycK     :	isopycnal diffusion coefficient (default=GM_background_K)
(PID.TID 0000.0001) ># GM_AdvForm     :	turn on GM Advective form       (default=Skew flux form)
(PID.TID 0000.0001) >
(PID.TID 0000.0001) > &GM_PARM01
(PID.TID 0000.0001) >  GM_background_K    = 800.,
(PID.TID 0000.0001) >  GM_taper_scheme    = 'gkw91',
(PID.TID 0000.0001) >  GM_maxSlope        = 1.e-2,
(PID.TID 0000.0001) >  GM_Kmin_horiz      = 50.,
(PID.TID 0000.0001) >  GM_Scrit           = 4.e-3,
(PID.TID 0000.0001) >  GM_Sd              = 1.e-3,
(PID.TID 0000.0001) ># GM_Visbeck_alpha   = 0.,
(PID.TID 0000.0001) ># GM_Visbeck_length  = 2.e+5,
(PID.TID 0000.0001) ># GM_Visbeck_depth   = 1.e+3,
(PID.TID 0000.0001) ># GM_Visbeck_maxval_K= 2.5e+3,
(PID.TID 0000.0001) > &end
(PID.TID 0000.0001) >
(PID.TID 0000.0001) >
(PID.TID 0000.0001) 
(PID.TID 0000.0001)  GM_READPARMS: finished reading data.gmredi
(PID.TID 0000.0001) 
(PID.TID 0000.0001) // ===================================
(PID.TID 0000.0001) // GAD parameters :
(PID.TID 0000.0001) // ===================================
(PID.TID 0000.0001) tempAdvScheme =   /* Temp. advection scheme selector */
(PID.TID 0000.0001)                       2
(PID.TID 0000.0001)     ;
(PID.TID 0000.0001) tempMultiDimAdvec =   /* use Muti-Dim Advec method for Temp */
(PID.TID 0000.0001)                   F
(PID.TID 0000.0001)     ;
(PID.TID 0000.0001) tempAdamsBashforth =   /* use Adams-Bashforth time-stepping for Temp */
(PID.TID 0000.0001)                   T
(PID.TID 0000.0001)     ;
(PID.TID 0000.0001) saltAdvScheme =   /* Salt. advection scheme selector */
(PID.TID 0000.0001)                       2
(PID.TID 0000.0001)     ;
(PID.TID 0000.0001) saltMultiDimAdvec =   /* use Muti-Dim Advec method for Salt */
(PID.TID 0000.0001)                   F
(PID.TID 0000.0001)     ;
(PID.TID 0000.0001) saltAdamsBashforth =   /* use Adams-Bashforth time-stepping for Salt */
(PID.TID 0000.0001)                   T
(PID.TID 0000.0001)     ;
(PID.TID 0000.0001) // ===================================
(PID.TID 0000.0001) GMREDI_CHECK: #define GMREDI
(PID.TID 0000.0001) GM_AdvForm =  /* if FALSE => use SkewFlux Form */
(PID.TID 0000.0001)                   F
(PID.TID 0000.0001)     ;
(PID.TID 0000.0001) GM_AdvSeparate = /* Calc Bolus & Euler Adv. separately */
(PID.TID 0000.0001)                   F
(PID.TID 0000.0001)     ;
(PID.TID 0000.0001) GM_ExtraDiag =  /* Tensor Extra Diag (line 1&2) non 0 */
(PID.TID 0000.0001)                   F
(PID.TID 0000.0001)     ;
(PID.TID 0000.0001) GM_isopycK =   /* Background Isopyc. Diffusivity ( m^2/s ) */
(PID.TID 0000.0001)                 8.000000000000000E+02
(PID.TID 0000.0001)     ;
(PID.TID 0000.0001)  GM_skewflx*K =   /* Background GM_SkewFlx Diffusivity ( m^2/s ) */
(PID.TID 0000.0001)                 8.000000000000000E+02
(PID.TID 0000.0001)     ;
(PID.TID 0000.0001)  GM_advec*K =   /* Backg. GM-Advec(=Bolus) Diffusivity ( m^2/s ) */
(PID.TID 0000.0001)                 0.000000000000000E+00
(PID.TID 0000.0001)     ;
(PID.TID 0000.0001)  GM_Visbeck_alpha =   /* Visbeck alpha coeff. ( ) */
(PID.TID 0000.0001)                 0.000000000000000E+00
(PID.TID 0000.0001)     ;
(PID.TID 0000.0001)  Tapering/Cliping : gkw91
(PID.TID 0000.0001)  GM_Small_Number =  /* epsilon used in slope calc */
(PID.TID 0000.0001)                 1.000000000000000E-12
(PID.TID 0000.0001)     ;
(PID.TID 0000.0001)  GM_slopeSqCutoff =  /* Slope^2 cut-off value */
(PID.TID 0000.0001)                 1.000000000000000E+48
(PID.TID 0000.0001)     ;
(PID.TID 0000.0001) %MON fCori_max                    =   1.4535016908525E-04
(PID.TID 0000.0001) %MON fCori_min                    =  -1.4535016908525E-04
(PID.TID 0000.0001) %MON fCori_mean                   =   4.3233973349438E-22
(PID.TID 0000.0001) %MON fCori_sd                     =   8.3972192788621E-05
(PID.TID 0000.0001) %MON fCoriG_max                   =   1.4544410433286E-04
(PID.TID 0000.0001) %MON fCoriG_min                   =  -1.4544410433286E-04
(PID.TID 0000.0001) %MON fCoriG_mean                  =  -7.9972525605127E-22
(PID.TID 0000.0001) %MON fCoriG_sd                    =   8.4860812167727E-05
(PID.TID 0000.0001) %MON fCoriCos_max                 =   1.4540341538469E-04
(PID.TID 0000.0001) %MON fCoriCos_min                 =   5.2264550201501E-06
(PID.TID 0000.0001) %MON fCoriCos_mean                =   1.1482595466044E-04
(PID.TID 0000.0001) %MON fCoriCos_sd                  =   3.0292878037194E-05
(PID.TID 0000.0001) // CG2D normalisation factor =          0.1915656415494955617292300E-03
(PID.TID 0000.0001) 
 ini_cg2d: sumArea,cg2dTolerance =  3.63886737508160E+14  5.80901636017529E-07
(PID.TID 0000.0001) CONFIG_CHECK: OK
(PID.TID 0000.0001) // =======================================================
(PID.TID 0000.0001) // Model configuration
(PID.TID 0000.0001) // =======================================================
(PID.TID 0000.0001) //
(PID.TID 0000.0001) // "Physical" paramters ( PARM01 in namelist )
(PID.TID 0000.0001) //
(PID.TID 0000.0001) buoyancyRelation = OCEANIC
(PID.TID 0000.0001) tRef =   /* Reference temperature profile ( oC or oK ) */
(PID.TID 0000.0001)    15 @  2.000000000000000E+01              /* K =  1: 15 */
(PID.TID 0000.0001)     ;
(PID.TID 0000.0001) sRef =   /* Reference salinity profile ( ppt ) */
(PID.TID 0000.0001)    15 @  3.500000000000000E+01              /* K =  1: 15 */
(PID.TID 0000.0001)     ;
(PID.TID 0000.0001) viscAh =   /* Lateral eddy viscosity ( m^2/s ) */
(PID.TID 0000.0001)                 3.000000000000000E+05
(PID.TID 0000.0001)     ;
(PID.TID 0000.0001) viscAhMax =   /* Maximum lateral eddy viscosity ( m^2/s ) */
(PID.TID 0000.0001)                 1.000000000000000E+21
(PID.TID 0000.0001)     ;
(PID.TID 0000.0001) viscAhGrid =   /* Grid dependent lateral eddy viscosity ( non-dim. ) */
(PID.TID 0000.0001)                 0.000000000000000E+00
(PID.TID 0000.0001)     ;
(PID.TID 0000.0001) viscA4 =   /* Lateral biharmonic viscosity ( m^4/s ) */
(PID.TID 0000.0001)                 0.000000000000000E+00
(PID.TID 0000.0001)     ;
(PID.TID 0000.0001) viscA4Max =   /* Maximum biharmonic viscosity ( m^2/s ) */
(PID.TID 0000.0001)                 1.000000000000000E+21
(PID.TID 0000.0001)     ;
(PID.TID 0000.0001) viscA4Grid =   /* Grid dependent biharmonic viscosity ( non-dim. ) */
(PID.TID 0000.0001)                 0.000000000000000E+00
(PID.TID 0000.0001)     ;
(PID.TID 0000.0001) no_slip_sides =  /* Viscous BCs: No-slip sides */
(PID.TID 0000.0001)                   T
(PID.TID 0000.0001)     ;
(PID.TID 0000.0001) viscAr =   /* Vertical eddy viscosity ( units of r^2/s ) */
(PID.TID 0000.0001)                 1.000000000000000E-03
(PID.TID 0000.0001)     ;
(PID.TID 0000.0001) diffKhT =   /* Laplacian diffusion of heat laterally ( m^2/s ) */
(PID.TID 0000.0001)                 0.000000000000000E+00
(PID.TID 0000.0001)     ;
(PID.TID 0000.0001) diffK4T =   /* Bihaarmonic diffusion of heat laterally ( m^4/s ) */
(PID.TID 0000.0001)                 0.000000000000000E+00
(PID.TID 0000.0001)     ;
(PID.TID 0000.0001) diffKrT =   /* Laplacian diffusion of heat vertically ( m^2/s ) */
(PID.TID 0000.0001)                 3.000000000000000E-05
(PID.TID 0000.0001)     ;
(PID.TID 0000.0001) diffKhS =   /* Laplacian diffusion of salt laterally ( m^2/s ) */
(PID.TID 0000.0001)                 0.000000000000000E+00
(PID.TID 0000.0001)     ;
(PID.TID 0000.0001) diffK4S =   /* Bihaarmonic diffusion of salt laterally ( m^4/s ) */
(PID.TID 0000.0001)                 0.000000000000000E+00
(PID.TID 0000.0001)     ;
(PID.TID 0000.0001) diffKrS =   /* Laplacian diffusion of salt vertically ( m^2/s ) */
(PID.TID 0000.0001)                 3.000000000000000E-05
(PID.TID 0000.0001)     ;
(PID.TID 0000.0001)  Equation of State : eosType = JMD95Z
(PID.TID 0000.0001) tAlpha =   /* Linear EOS thermal expansion coefficient ( 1/degree ) */
(PID.TID 0000.0001)                 1.234567000000000E+05
(PID.TID 0000.0001)     ;
(PID.TID 0000.0001) sBeta =   /* Linear EOS haline contraction coefficient ( 1/ppt ) */
(PID.TID 0000.0001)                 1.234567000000000E+05
(PID.TID 0000.0001)     ;
(PID.TID 0000.0001) rhonil =   /* Reference density ( kg/m^3 ) */
(PID.TID 0000.0001)                 1.035000000000000E+03
(PID.TID 0000.0001)     ;
(PID.TID 0000.0001) rhoConst =   /* Reference density ( kg/m^3 ) */
(PID.TID 0000.0001)                 1.035000000000000E+03
(PID.TID 0000.0001)     ;
(PID.TID 0000.0001) rhoConstFresh =   /* Reference density ( kg/m^3 ) */
(PID.TID 0000.0001)                 1.035000000000000E+03
(PID.TID 0000.0001)     ;
(PID.TID 0000.0001) gravity =   /* Gravitational acceleration ( m/s^2 ) */
(PID.TID 0000.0001)                 9.810000000000000E+00
(PID.TID 0000.0001)     ;
(PID.TID 0000.0001) gBaro =   /* Barotropic gravity ( m/s^2 ) */
(PID.TID 0000.0001)                 9.810000000000000E+00
(PID.TID 0000.0001)     ;
(PID.TID 0000.0001) rotationPeriod =   /* Rotation Period ( s ) */
(PID.TID 0000.0001)                 8.640000000000000E+04
(PID.TID 0000.0001)     ;
(PID.TID 0000.0001) omega =   /* Angular velocity ( rad/s ) */
(PID.TID 0000.0001)                 7.272205216643040E-05
(PID.TID 0000.0001)     ;
(PID.TID 0000.0001) f0 =   /* Reference coriolis parameter ( 1/s ) */
(PID.TID 0000.0001)                 1.000000000000000E-04
(PID.TID 0000.0001)     ;
(PID.TID 0000.0001) beta =   /* Beta ( 1/(m.s) ) */
(PID.TID 0000.0001)                 9.999999999999999E-12
(PID.TID 0000.0001)     ;
(PID.TID 0000.0001) freeSurfFac =   /* Implicit free surface factor */
(PID.TID 0000.0001)                 1.000000000000000E+00
(PID.TID 0000.0001)     ;
(PID.TID 0000.0001) implicitFreeSurface =   /* Implicit free surface on/off flag */
(PID.TID 0000.0001)                   T
(PID.TID 0000.0001)     ;
(PID.TID 0000.0001) rigidLid =   /* Rigid lid on/off flag */
(PID.TID 0000.0001)                   F
(PID.TID 0000.0001)     ;
(PID.TID 0000.0001) implicSurfPress =   /* Surface Pressure implicit factor (0-1)*/
(PID.TID 0000.0001)                 1.000000000000000E+00
(PID.TID 0000.0001)     ;
(PID.TID 0000.0001) implicDiv2Dflow =   /* Barot. Flow Div. implicit factor (0-1)*/
(PID.TID 0000.0001)                 1.000000000000000E+00
(PID.TID 0000.0001)     ;
(PID.TID 0000.0001) exactConserv =   /* Exact Volume Conservation on/off flag*/
(PID.TID 0000.0001)                   T
(PID.TID 0000.0001)     ;
(PID.TID 0000.0001) uniformLin_PhiSurf =   /* use uniform Bo_surf on/off flag*/
(PID.TID 0000.0001)                   T
(PID.TID 0000.0001)     ;
(PID.TID 0000.0001) nonlinFreeSurf =   /* Non-linear Free Surf. options (-1,0,1,2,3)*/
(PID.TID 0000.0001)                       4
(PID.TID 0000.0001)     ;
(PID.TID 0000.0001)      -1,0= Off ; 1,2,3= On, 2=+rescale gU,gV, 3=+update cg2d solv.
(PID.TID 0000.0001) hFacInf =   /* lower threshold for hFac (nonlinFreeSurf only)*/
(PID.TID 0000.0001)                 2.000000000000000E-01
(PID.TID 0000.0001)     ;
(PID.TID 0000.0001) hFacSup =   /* upper threshold for hFac (nonlinFreeSurf only)*/
(PID.TID 0000.0001)                 2.000000000000000E+00
(PID.TID 0000.0001)     ;
(PID.TID 0000.0001) select_rStar =   /* r* Coordinate options (not yet implemented)*/
(PID.TID 0000.0001)                       2
(PID.TID 0000.0001)     ;
(PID.TID 0000.0001) useRealFreshWaterFlux =   /* Real Fresh Water Flux on/off flag*/
(PID.TID 0000.0001)                   T
(PID.TID 0000.0001)     ;
(PID.TID 0000.0001) temp_EvPrRn = /* Temp. of Evap/Prec/R (UNSET=use local T)(oC)*/
(PID.TID 0000.0001)                 1.234567000000000E+05
(PID.TID 0000.0001)     ;
(PID.TID 0000.0001) salt_EvPrRn = /* Salin. of Evap/Prec/R (UNSET=use local S)(ppt)*/
(PID.TID 0000.0001)                 0.000000000000000E+00
(PID.TID 0000.0001)     ;
(PID.TID 0000.0001) trac_EvPrRn = /* Tracer in Evap/Prec/R (UNSET=use local Tr)*/
(PID.TID 0000.0001)                 1.234567000000000E+05
(PID.TID 0000.0001)     ;
(PID.TID 0000.0001) nonHydrostatic =  /* Non-Hydrostatic on/off flag */
(PID.TID 0000.0001)                   F
(PID.TID 0000.0001)     ;
(PID.TID 0000.0001) momStepping =  /* Momentum equation on/off flag */
(PID.TID 0000.0001)                   T
(PID.TID 0000.0001)     ;
(PID.TID 0000.0001) momAdvection =  /* Momentum advection on/off flag */
(PID.TID 0000.0001)                   T
(PID.TID 0000.0001)     ;
(PID.TID 0000.0001) momViscosity =  /* Momentum viscosity on/off flag */
(PID.TID 0000.0001)                   T
(PID.TID 0000.0001)     ;
(PID.TID 0000.0001) momImplVertAdv =/* Momentum implicit vert. advection on/off*/
(PID.TID 0000.0001)                   F
(PID.TID 0000.0001)     ;
(PID.TID 0000.0001) implicitViscosity = /* Implicit viscosity on/off flag */
(PID.TID 0000.0001)                   F
(PID.TID 0000.0001)     ;
(PID.TID 0000.0001) useCoriolis =  /* Coriolis on/off flag */
(PID.TID 0000.0001)                   T
(PID.TID 0000.0001)     ;
(PID.TID 0000.0001) useCDscheme =  /* CD scheme on/off flag */
(PID.TID 0000.0001)                   F
(PID.TID 0000.0001)     ;
(PID.TID 0000.0001) useJamartWetPoints= /* Coriolis WetPoints method flag */
(PID.TID 0000.0001)                   F
(PID.TID 0000.0001)     ;
(PID.TID 0000.0001) momForcing =  /* Momentum forcing on/off flag */
(PID.TID 0000.0001)                   T
(PID.TID 0000.0001)     ;
(PID.TID 0000.0001) momPressureForcing =  /* Momentum pressure term on/off flag */
(PID.TID 0000.0001)                   T
(PID.TID 0000.0001)     ;
(PID.TID 0000.0001) staggerTimeStep =   /* Stagger time stepping on/off flag */
(PID.TID 0000.0001)                   F
(PID.TID 0000.0001)     ;
(PID.TID 0000.0001) multiDimAdvection =   /* enable/disable Multi-Dim Advection */
(PID.TID 0000.0001)                   T
(PID.TID 0000.0001)     ;
(PID.TID 0000.0001) implicitDiffusion =/* Implicit Diffusion on/off flag */
(PID.TID 0000.0001)                   T
(PID.TID 0000.0001)     ;
(PID.TID 0000.0001) tempStepping =  /* Temperature equation on/off flag */
(PID.TID 0000.0001)                   T
(PID.TID 0000.0001)     ;
(PID.TID 0000.0001) tempAdvection=  /* Temperature advection on/off flag */
(PID.TID 0000.0001)                   T
(PID.TID 0000.0001)     ;
(PID.TID 0000.0001) tempImplVertAdv =/* Temp. implicit vert. advection on/off */
(PID.TID 0000.0001)                   F
(PID.TID 0000.0001)     ;
(PID.TID 0000.0001) tempForcing  =  /* Temperature forcing on/off flag */
(PID.TID 0000.0001)                   T
(PID.TID 0000.0001)     ;
(PID.TID 0000.0001) saltStepping =  /* Salinity equation on/off flag */
(PID.TID 0000.0001)                   T
(PID.TID 0000.0001)     ;
(PID.TID 0000.0001) saltAdvection=  /* Salinity advection on/off flag */
(PID.TID 0000.0001)                   T
(PID.TID 0000.0001)     ;
(PID.TID 0000.0001) saltImplVertAdv =/* Sali. implicit vert. advection on/off */
(PID.TID 0000.0001)                   F
(PID.TID 0000.0001)     ;
(PID.TID 0000.0001) saltForcing  =  /* Salinity forcing on/off flag */
(PID.TID 0000.0001)                   T
(PID.TID 0000.0001)     ;
(PID.TID 0000.0001) //
(PID.TID 0000.0001) // Elliptic solver(s) paramters ( PARM02 in namelist )
(PID.TID 0000.0001) //
(PID.TID 0000.0001) cg2dMaxIters =   /* Upper limit on 2d con. grad iterations  */
(PID.TID 0000.0001)                     200
(PID.TID 0000.0001)     ;
(PID.TID 0000.0001) cg2dChkResFreq =   /* 2d con. grad convergence test frequency */
(PID.TID 0000.0001)                       1
(PID.TID 0000.0001)     ;
(PID.TID 0000.0001) cg2dTargetResidual =   /* 2d con. grad target residual  */
(PID.TID 0000.0001)                 1.000000000000000E-07
(PID.TID 0000.0001)     ;
(PID.TID 0000.0001) //
(PID.TID 0000.0001) // Time stepping paramters ( PARM03 in namelist )
(PID.TID 0000.0001) //
(PID.TID 0000.0001) nIter0 =   /* Base timestep number  */
(PID.TID 0000.0001)                   72000
(PID.TID 0000.0001)     ;
(PID.TID 0000.0001) nTimeSteps =   /* Number of timesteps */
(PID.TID 0000.0001)                      20
(PID.TID 0000.0001)     ;
(PID.TID 0000.0001) deltatTmom =   /* Momentum equation timestep ( s ) */
(PID.TID 0000.0001)                 1.200000000000000E+03
(PID.TID 0000.0001)     ;
(PID.TID 0000.0001) deltaTfreesurf =   /* FreeSurface equation timestep ( s ) */
(PID.TID 0000.0001)                 8.640000000000000E+04
(PID.TID 0000.0001)     ;
(PID.TID 0000.0001) deltatTtracer =   /* Tracer equation timestep ( s ) */
(PID.TID 0000.0001)                 8.640000000000000E+04
(PID.TID 0000.0001)     ;
(PID.TID 0000.0001) deltatTClock  =   /* Model clock timestep ( s ) */
(PID.TID 0000.0001)                 8.640000000000000E+04
(PID.TID 0000.0001)     ;
(PID.TID 0000.0001) cAdjFreq =   /* Convective adjustment interval ( s ) */
(PID.TID 0000.0001)                 0.000000000000000E+00
(PID.TID 0000.0001)     ;
(PID.TID 0000.0001) forcing_In_AB =   /* put T,S Forcing in Adams-Bash. stepping */
(PID.TID 0000.0001)                   F
(PID.TID 0000.0001)     ;
(PID.TID 0000.0001) abeps =   /* Adams-Bashforth stabilizing weight */
(PID.TID 0000.0001)                 1.000000000000000E-01
(PID.TID 0000.0001)     ;
(PID.TID 0000.0001) startTime =   /* Run start time ( s ). */
(PID.TID 0000.0001)                 6.220800000000000E+09
(PID.TID 0000.0001)     ;
(PID.TID 0000.0001) endTime =   /* Integration ending time ( s ). */
(PID.TID 0000.0001)                 6.222528000000000E+09
(PID.TID 0000.0001)     ;
(PID.TID 0000.0001) pChkPtFreq =   /* Permanent restart/checkpoint file interval ( s ). */
(PID.TID 0000.0001)                 1.728000000000000E+06
(PID.TID 0000.0001)     ;
(PID.TID 0000.0001) chkPtFreq =   /* Rolling restart/checkpoint file interval ( s ). */
(PID.TID 0000.0001)                 0.000000000000000E+00
(PID.TID 0000.0001)     ;
(PID.TID 0000.0001) dumpFreq =   /* Model state write out interval ( s ). */
(PID.TID 0000.0001)                 6.220800000000000E+08
(PID.TID 0000.0001)     ;
(PID.TID 0000.0001) externForcingPeriod =   /* forcing period (s) */
(PID.TID 0000.0001)                 2.592000000000000E+06
(PID.TID 0000.0001)     ;
(PID.TID 0000.0001) externForcingCycle =   /* period of the cyle (s). */
(PID.TID 0000.0001)                 3.110400000000000E+07
(PID.TID 0000.0001)     ;
(PID.TID 0000.0001) tauThetaClimRelax =   /* relaxation time scale (s) */
(PID.TID 0000.0001)                 5.184000000000000E+06
(PID.TID 0000.0001)     ;
(PID.TID 0000.0001) tauSaltClimRelax =   /* relaxation time scale (s) */
(PID.TID 0000.0001)                 6.220800000000000E+07
(PID.TID 0000.0001)     ;
(PID.TID 0000.0001) latBandClimRelax =   /* max. Lat. where relaxation */
(PID.TID 0000.0001)                 1.800000000000000E+02
(PID.TID 0000.0001)     ;
(PID.TID 0000.0001) //
(PID.TID 0000.0001) // Gridding paramters ( PARM04 in namelist )
(PID.TID 0000.0001) //
(PID.TID 0000.0001) usingCartesianGrid =   /* Cartesian coordinates flag ( True / False ) */
(PID.TID 0000.0001)                   F
(PID.TID 0000.0001)     ;
(PID.TID 0000.0001) usingSphericalPolarGrid =   /* Spherical coordinates flag ( True / False ) */
(PID.TID 0000.0001)                   F
(PID.TID 0000.0001)     ;
(PID.TID 0000.0001) groundAtK1 =   /* Lower Boundary (ground) at the surface(k=1) ( T / F ) */
(PID.TID 0000.0001)                   F
(PID.TID 0000.0001)     ;
(PID.TID 0000.0001) Ro_SeaLevel =   /* r(1) ( units of r ) */
(PID.TID 0000.0001)                 0.000000000000000E+00
(PID.TID 0000.0001)     ;
(PID.TID 0000.0001) rkFac =   /* minus Vertical index orientation  */
(PID.TID 0000.0001)                 1.000000000000000E+00
(PID.TID 0000.0001)     ;
(PID.TID 0000.0001) horiVertRatio =   /* Ratio on units : Horiz - Vertical */
(PID.TID 0000.0001)                 1.000000000000000E+00
(PID.TID 0000.0001)     ;
(PID.TID 0000.0001) drC =   /* C spacing ( units of r ) */
(PID.TID 0000.0001)                 2.500000000000000E+01,      /* K =  1 */
(PID.TID 0000.0001)                 6.000000000000000E+01,      /* K =  2 */
(PID.TID 0000.0001)                 8.500000000000000E+01,      /* K =  3 */
(PID.TID 0000.0001)                 1.200000000000000E+02,      /* K =  4 */
(PID.TID 0000.0001)                 1.650000000000000E+02,      /* K =  5 */
(PID.TID 0000.0001)                 2.150000000000000E+02,      /* K =  6 */
(PID.TID 0000.0001)                 2.650000000000000E+02,      /* K =  7 */
(PID.TID 0000.0001)                 3.150000000000000E+02,      /* K =  8 */
(PID.TID 0000.0001)                 3.650000000000000E+02,      /* K =  9 */
(PID.TID 0000.0001)                 4.150000000000000E+02,      /* K = 10 */
(PID.TID 0000.0001)                 4.650000000000000E+02,      /* K = 11 */
(PID.TID 0000.0001)                 5.150000000000000E+02,      /* K = 12 */
(PID.TID 0000.0001)                 5.650000000000000E+02,      /* K = 13 */
(PID.TID 0000.0001)                 6.150000000000000E+02,      /* K = 14 */
(PID.TID 0000.0001)                 6.650000000000000E+02       /* K = 15 */
(PID.TID 0000.0001)     ;
(PID.TID 0000.0001) drF =   /* W spacing ( units of r ) */
(PID.TID 0000.0001)                 5.000000000000000E+01,      /* K =  1 */
(PID.TID 0000.0001)                 7.000000000000000E+01,      /* K =  2 */
(PID.TID 0000.0001)                 1.000000000000000E+02,      /* K =  3 */
(PID.TID 0000.0001)                 1.400000000000000E+02,      /* K =  4 */
(PID.TID 0000.0001)                 1.900000000000000E+02,      /* K =  5 */
(PID.TID 0000.0001)                 2.400000000000000E+02,      /* K =  6 */
(PID.TID 0000.0001)                 2.900000000000000E+02,      /* K =  7 */
(PID.TID 0000.0001)                 3.400000000000000E+02,      /* K =  8 */
(PID.TID 0000.0001)                 3.900000000000000E+02,      /* K =  9 */
(PID.TID 0000.0001)                 4.400000000000000E+02,      /* K = 10 */
(PID.TID 0000.0001)                 4.900000000000000E+02,      /* K = 11 */
(PID.TID 0000.0001)                 5.400000000000000E+02,      /* K = 12 */
(PID.TID 0000.0001)                 5.900000000000000E+02,      /* K = 13 */
(PID.TID 0000.0001)                 6.400000000000000E+02,      /* K = 14 */
(PID.TID 0000.0001)                 6.900000000000000E+02       /* K = 15 */
(PID.TID 0000.0001)     ;
(PID.TID 0000.0001) delX =   /* U spacing ( m - cartesian, degrees - spherical ) */
(PID.TID 0000.0001)  1536 @  1.234567000000000E+05              /* I =  1:*** */
(PID.TID 0000.0001)     ;
(PID.TID 0000.0001) delY =   /* V spacing ( m - cartesian, degrees - spherical ) */
(PID.TID 0000.0001)     4 @  1.234567000000000E+05              /* J =  1:  4 */
(PID.TID 0000.0001)     ;
(PID.TID 0000.0001) phiMin =    /* South edge (ignored - cartesian, degrees - spherical ) */
(PID.TID 0000.0001)                 0.000000000000000E+00
(PID.TID 0000.0001)     ;
(PID.TID 0000.0001) thetaMin =    /* West edge ( ignored - cartesian, degrees - spherical ) */
(PID.TID 0000.0001)                 0.000000000000000E+00
(PID.TID 0000.0001)     ;
(PID.TID 0000.0001) rSphere =    /* Radius ( ignored - cartesian, m - spherical ) */
(PID.TID 0000.0001)                 6.370000000000000E+06
(PID.TID 0000.0001)     ;
(PID.TID 0000.0001) xcoord =   /* P-point X coord ( m - cartesian, degrees - spherical ) */
(PID.TID 0000.0001)                -4.439521994760536E+01,      /* I =  1 */
(PID.TID 0000.0001)                -4.295641272275883E+01,      /* I =  2 */
(PID.TID 0000.0001)                -4.122055553388957E+01,      /* I =  3 */
(PID.TID 0000.0001)                -3.923446288487304E+01,      /* I =  4 */
(PID.TID 0000.0001)                -3.702585158682200E+01,      /* I =  5 */
(PID.TID 0000.0001)                -3.461179367094151E+01,      /* I =  6 */
(PID.TID 0000.0001)                -3.200434569041793E+01,      /* I =  7 */
(PID.TID 0000.0001)                -2.921355965632675E+01,      /* I =  8 */
(PID.TID 0000.0001)                -2.624932223028290E+01,      /* I =  9 */
(PID.TID 0000.0001)                -2.312261250426344E+01,      /* I = 10 */
(PID.TID 0000.0001)                -1.984640717127058E+01,      /* I = 11 */
(PID.TID 0000.0001)                -1.643630800555134E+01,      /* I = 12 */
(PID.TID 0000.0001)                -1.291089806302069E+01,      /* I = 13 */
(PID.TID 0000.0001)                -9.291807802719402E+00,      /* I = 14 */
(PID.TID 0000.0001)                -5.603475335822332E+00,      /* I = 15 */
(PID.TID 0000.0001)                -1.872608513033445E+00,      /* I = 16 */
(PID.TID 0000.0001)                 1.872608513033445E+00,      /* I = 17 */
(PID.TID 0000.0001)                 5.603475335822332E+00,      /* I = 18 */
(PID.TID 0000.0001)                 9.291807802719402E+00,      /* I = 19 */
(PID.TID 0000.0001)                 1.291089806302069E+01,      /* I = 20 */
(PID.TID 0000.0001)                 1.643630800555134E+01,      /* I = 21 */
(PID.TID 0000.0001)                 1.984640717127058E+01,      /* I = 22 */
(PID.TID 0000.0001)                 2.312261250426344E+01,      /* I = 23 */
(PID.TID 0000.0001)                 2.624932223028290E+01,      /* I = 24 */
(PID.TID 0000.0001)                 2.921355965632675E+01,      /* I = 25 */
(PID.TID 0000.0001)                 3.200434569041793E+01,      /* I = 26 */
(PID.TID 0000.0001)                 3.461179367094151E+01,      /* I = 27 */
(PID.TID 0000.0001)                 3.702585158682200E+01,      /* I = 28 */
(PID.TID 0000.0001)                 3.923446288487304E+01,      /* I = 29 */
(PID.TID 0000.0001)                 4.122055553388957E+01,      /* I = 30 */
(PID.TID 0000.0001)                 4.295641272275883E+01,      /* I = 31 */
(PID.TID 0000.0001)                 4.439521994760536E+01,      /* I = 32 */
(PID.TID 0000.0001)                -4.386554668529575E+01,      /* I = 33 */
(PID.TID 0000.0001)                -4.158083179474801E+01,      /* I = 34 */
(PID.TID 0000.0001)                -3.925140759139936E+01,      /* I = 35 */
(PID.TID 0000.0001)                -3.685492393875296E+01,      /* I = 36 */
(PID.TID 0000.0001)                -3.437640690486569E+01,      /* I = 37 */
(PID.TID 0000.0001)                -3.180717455618179E+01,      /* I = 38 */
(PID.TID 0000.0001)                -2.914333954842026E+01,      /* I = 39 */
(PID.TID 0000.0001)                -2.638461335684921E+01,      /* I = 40 */
(PID.TID 0000.0001)                -2.353352417817589E+01,      /* I = 41 */
(PID.TID 0000.0001)                -2.059494601616771E+01,      /* I = 42 */
(PID.TID 0000.0001)                -1.757581221702848E+01,      /* I = 43 */
(PID.TID 0000.0001)                -1.448491488161255E+01,      /* I = 44 */
(PID.TID 0000.0001)                -1.133272333464395E+01,      /* I = 45 */
(PID.TID 0000.0001)                -8.131180032374264E+00,      /* I = 46 */
(PID.TID 0000.0001)                -4.893451556383331E+00,      /* I = 47 */
(PID.TID 0000.0001)                -1.633627618761921E+00,      /* I = 48 */
(PID.TID 0000.0001)                 1.633627618761921E+00,      /* I = 49 */
(PID.TID 0000.0001)                 4.893451556383331E+00,      /* I = 50 */
(PID.TID 0000.0001)                 8.131180032374264E+00,      /* I = 51 */
(PID.TID 0000.0001)                 1.133272333464395E+01,      /* I = 52 */
(PID.TID 0000.0001)                 1.448491488161255E+01,      /* I = 53 */
(PID.TID 0000.0001)                 1.757581221702848E+01,      /* I = 54 */
(PID.TID 0000.0001)                 2.059494601616771E+01,      /* I = 55 */
(PID.TID 0000.0001)                 2.353352417817589E+01,      /* I = 56 */
(PID.TID 0000.0001)                 2.638461335684921E+01,      /* I = 57 */
(PID.TID 0000.0001)                 2.914333954842026E+01,      /* I = 58 */
(PID.TID 0000.0001)                 3.180717455618179E+01,      /* I = 59 */
(PID.TID 0000.0001)                 3.437640690486569E+01,      /* I = 60 */
(PID.TID 0000.0001)                 3.685492393875296E+01,      /* I = 61 */
(PID.TID 0000.0001)                 3.925140759139936E+01,      /* I = 62 */
(PID.TID 0000.0001)                 4.158083179474801E+01,      /* I = 63 */
(PID.TID 0000.0001)                 4.386554668529575E+01,      /* I = 64 */
(PID.TID 0000.0001)                -4.371437196732662E+01,      /* I = 65 */
(PID.TID 0000.0001)                -4.113779912064380E+01,      /* I = 66 */
(PID.TID 0000.0001)                -3.854563384453478E+01,      /* I = 67 */
(PID.TID 0000.0001)                -3.592861144827750E+01,      /* I = 68 */
(PID.TID 0000.0001)                -3.327896932688326E+01,      /* I = 69 */
(PID.TID 0000.0001)                -3.059073785313681E+01,      /* I = 70 */
(PID.TID 0000.0001)                -2.785985050479606E+01,      /* I = 71 */
(PID.TID 0000.0001)                -2.508412290111091E+01,      /* I = 72 */
(PID.TID 0000.0001)                -2.226315249572405E+01,      /* I = 73 */
(PID.TID 0000.0001)                -1.939817736903109E+01,      /* I = 74 */
(PID.TID 0000.0001)                -1.649191629557423E+01,      /* I = 75 */
(PID.TID 0000.0001)                -1.354839957433250E+01,      /* I = 76 */
(PID.TID 0000.0001)                -1.057279257437913E+01,      /* I = 77 */
(PID.TID 0000.0001)                -7.571210723433387E+00,      /* I = 78 */
(PID.TID 0000.0001)                -4.550524293150388E+00,      /* I = 79 */
(PID.TID 0000.0001)                -1.518152510024056E+00,      /* I = 80 */
(PID.TID 0000.0001)                 1.518152510024056E+00,      /* I = 81 */
(PID.TID 0000.0001)                 4.550524293150388E+00,      /* I = 82 */
(PID.TID 0000.0001)                 7.571210723433387E+00,      /* I = 83 */
(PID.TID 0000.0001)                 1.057279257437913E+01,      /* I = 84 */
(PID.TID 0000.0001)                 1.354839957433250E+01,      /* I = 85 */
(PID.TID 0000.0001)                 1.649191629557423E+01,      /* I = 86 */
(PID.TID 0000.0001)                 1.939817736903109E+01,      /* I = 87 */
(PID.TID 0000.0001)                 2.226315249572405E+01,      /* I = 88 */
(PID.TID 0000.0001)                 2.508412290111091E+01,      /* I = 89 */
(PID.TID 0000.0001)                 2.785985050479606E+01,      /* I = 90 */
(PID.TID 0000.0001)                 3.059073785313681E+01,      /* I = 91 */
(PID.TID 0000.0001)                 3.327896932688326E+01,      /* I = 92 */
(PID.TID 0000.0001)                 3.592861144827750E+01,      /* I = 93 */
(PID.TID 0000.0001)                 3.854563384453478E+01,      /* I = 94 */
(PID.TID 0000.0001)                 4.113779912064380E+01,      /* I = 95 */
(PID.TID 0000.0001)                 4.371437196732662E+01,      /* I = 96 */
(PID.TID 0000.0001)                -4.365757275742401E+01,      /* I = 97 */
(PID.TID 0000.0001)                -4.097014174339943E+01,      /* I = 98 */
(PID.TID 0000.0001)                -3.827510243175357E+01,      /* I = 99 */
(PID.TID 0000.0001)                -3.556777748303552E+01,      /* I =100 */
(PID.TID 0000.0001)                -3.284405053671798E+01,      /* I =101 */
(PID.TID 0000.0001)                -3.010053357024264E+01,      /* I =102 */
(PID.TID 0000.0001)                -2.733468834061625E+01,      /* I =103 */
(PID.TID 0000.0001)                -2.454490072018868E+01,      /* I =104 */
(PID.TID 0000.0001)                -2.173051081599247E+01,      /* I =105 */
(PID.TID 0000.0001)                -1.889180403118103E+01,      /* I =106 */
(PID.TID 0000.0001)                -1.602996895920675E+01,      /* I =107 */
(PID.TID 0000.0001)                -1.314702775222825E+01,      /* I =108 */
(PID.TID 0000.0001)                -1.024574392486110E+01,      /* I =109 */
(PID.TID 0000.0001)                -7.329511835146552E+00,      /* I =110 */
(PID.TID 0000.0001)                -4.402231532149304E+00,      /* I =111 */
(PID.TID 0000.0001)                -1.468172331103549E+00,      /* I =112 */
(PID.TID 0000.0001)                 1.468172331103549E+00,      /* I =113 */
(PID.TID 0000.0001)                 4.402231532149304E+00,      /* I =114 */
(PID.TID 0000.0001)                 7.329511835146552E+00,      /* I =115 */
(PID.TID 0000.0001)                 1.024574392486110E+01,      /* I =116 */
(PID.TID 0000.0001)                 1.314702775222825E+01,      /* I =117 */
(PID.TID 0000.0001)                 1.602996895920675E+01,      /* I =118 */
(PID.TID 0000.0001)                 1.889180403118103E+01,      /* I =119 */
(PID.TID 0000.0001)                 2.173051081599247E+01,      /* I =120 */
(PID.TID 0000.0001)                 2.454490072018868E+01,      /* I =121 */
(PID.TID 0000.0001)                 2.733468834061625E+01,      /* I =122 */
(PID.TID 0000.0001)                 3.010053357024264E+01,      /* I =123 */
(PID.TID 0000.0001)                 3.284405053671798E+01,      /* I =124 */
(PID.TID 0000.0001)                 3.556777748303552E+01,      /* I =125 */
(PID.TID 0000.0001)                 3.827510243175357E+01,      /* I =126 */
(PID.TID 0000.0001)                 4.097014174339943E+01,      /* I =127 */
(PID.TID 0000.0001)                 4.365757275742401E+01,      /* I =128 */
(PID.TID 0000.0001)                -4.364490324992833E+01,      /* I =129 */
(PID.TID 0000.0001)                -4.093268771156353E+01,      /* I =130 */
(PID.TID 0000.0001)                -3.821449311785297E+01,      /* I =131 */
(PID.TID 0000.0001)                -3.548661856694081E+01,      /* I =132 */
(PID.TID 0000.0001)                -3.274577371214319E+01,      /* I =133 */
(PID.TID 0000.0001)                -2.998921061819286E+01,      /* I =134 */
(PID.TID 0000.0001)                -2.721482732194908E+01,      /* I =135 */
(PID.TID 0000.0001)                -2.442123987207341E+01,      /* I =136 */
(PID.TID 0000.0001)                -2.160782193728863E+01,      /* I =137 */
(PID.TID 0000.0001)                -1.877471294668040E+01,      /* I =138 */
(PID.TID 0000.0001)                -1.592279705047260E+01,      /* I =139 */
(PID.TID 0000.0001)                -1.305365599512185E+01,      /* I =140 */
(PID.TID 0000.0001)                -1.016949940404567E+01,      /* I =141 */
(PID.TID 0000.0001)                -7.273076082698362E+00,      /* I =142 */
(PID.TID 0000.0001)                -4.367569947789942E+00,      /* I =143 */
(PID.TID 0000.0001)                -1.456484104946475E+00,      /* I =144 */
(PID.TID 0000.0001)                 1.456484104946475E+00,      /* I =145 */
(PID.TID 0000.0001)                 4.367569947789942E+00,      /* I =146 */
(PID.TID 0000.0001)                 7.273076082698362E+00,      /* I =147 */
(PID.TID 0000.0001)                 1.016949940404567E+01,      /* I =148 */
(PID.TID 0000.0001)                 1.305365599512185E+01,      /* I =149 */
(PID.TID 0000.0001)                 1.592279705047260E+01,      /* I =150 */
(PID.TID 0000.0001)                 1.877471294668040E+01,      /* I =151 */
(PID.TID 0000.0001)                 2.160782193728863E+01,      /* I =152 */
(PID.TID 0000.0001)                 2.442123987207341E+01,      /* I =153 */
(PID.TID 0000.0001)                 2.721482732194908E+01,      /* I =154 */
(PID.TID 0000.0001)                 2.998921061819286E+01,      /* I =155 */
(PID.TID 0000.0001)                 3.274577371214319E+01,      /* I =156 */
(PID.TID 0000.0001)                 3.548661856694081E+01,      /* I =157 */
(PID.TID 0000.0001)                 3.821449311785297E+01,      /* I =158 */
(PID.TID 0000.0001)                 4.093268771156353E+01,      /* I =159 */
(PID.TID 0000.0001)                 4.364490324992833E+01,      /* I =160 */
(PID.TID 0000.0001)                -4.366664040897447E+01,      /* I =161 */
(PID.TID 0000.0001)                -4.099693631846865E+01,      /* I =162 */
(PID.TID 0000.0001)                -3.831842665940356E+01,      /* I =163 */
(PID.TID 0000.0001)                -3.562572452781138E+01,      /* I =164 */
(PID.TID 0000.0001)                -3.291412330942259E+01,      /* I =165 */
(PID.TID 0000.0001)                -3.017978873401972E+01,      /* I =166 */
(PID.TID 0000.0001)                -2.741988976140677E+01,      /* I =167 */
(PID.TID 0000.0001)                -2.463267000881940E+01,      /* I =168 */
(PID.TID 0000.0001)                -2.181746673266365E+01,      /* I =169 */
(PID.TID 0000.0001)                -1.897468643663596E+01,      /* I =170 */
(PID.TID 0000.0001)                -1.610574589351443E+01,      /* I =171 */
(PID.TID 0000.0001)                -1.321298591576117E+01,      /* I =172 */
(PID.TID 0000.0001)                -1.029956353211225E+01,      /* I =173 */
(PID.TID 0000.0001)                -7.369326862692069E+00,      /* I =174 */
(PID.TID 0000.0001)                -4.426676122705681E+00,      /* I =175 */
(PID.TID 0000.0001)                -1.476413790048477E+00,      /* I =176 */
(PID.TID 0000.0001)                 1.476413790048477E+00,      /* I =177 */
(PID.TID 0000.0001)                 4.426676122705681E+00,      /* I =178 */
(PID.TID 0000.0001)                 7.369326862692069E+00,      /* I =179 */
(PID.TID 0000.0001)                 1.029956353211225E+01,      /* I =180 */
(PID.TID 0000.0001)                 1.321298591576117E+01,      /* I =181 */
(PID.TID 0000.0001)                 1.610574589351443E+01,      /* I =182 */
(PID.TID 0000.0001)                 1.897468643663596E+01,      /* I =183 */
(PID.TID 0000.0001)                 2.181746673266365E+01,      /* I =184 */
(PID.TID 0000.0001)                 2.463267000881940E+01,      /* I =185 */
(PID.TID 0000.0001)                 2.741988976140677E+01,      /* I =186 */
(PID.TID 0000.0001)                 3.017978873401972E+01,      /* I =187 */
(PID.TID 0000.0001)                 3.291412330942259E+01,      /* I =188 */
(PID.TID 0000.0001)                 3.562572452781138E+01,      /* I =189 */
(PID.TID 0000.0001)                 3.831842665940356E+01,      /* I =190 */
(PID.TID 0000.0001)                 4.099693631846865E+01,      /* I =191 */
(PID.TID 0000.0001)                 4.366664040897447E+01,      /* I =192 */
(PID.TID 0000.0001)                -4.373974889280662E+01,      /* I =193 */
(PID.TID 0000.0001)                -4.121254364943257E+01,      /* I =194 */
(PID.TID 0000.0001)                -3.866575716714821E+01,      /* I =195 */
(PID.TID 0000.0001)                -3.608797434582620E+01,      /* I =196 */
(PID.TID 0000.0001)                -3.346988050052689E+01,      /* I =197 */
(PID.TID 0000.0001)                -3.080455967545127E+01,      /* I =198 */
(PID.TID 0000.0001)                -2.808752413189615E+01,      /* I =199 */
(PID.TID 0000.0001)                -2.531658329184640E+01,      /* I =200 */
(PID.TID 0000.0001)                -2.249164253473730E+01,      /* I =201 */
(PID.TID 0000.0001)                -1.961448554173001E+01,      /* I =202 */
(PID.TID 0000.0001)                -1.668856239288920E+01,      /* I =203 */
(PID.TID 0000.0001)                -1.371878641312932E+01,      /* I =204 */
(PID.TID 0000.0001)                -1.071133410832144E+01,      /* I =205 */
(PID.TID 0000.0001)                -7.673440621444038E+00,      /* I =206 */
(PID.TID 0000.0001)                -4.613184806945879E+00,      /* I =207 */
(PID.TID 0000.0001)                -1.539261203127869E+00,      /* I =208 */
(PID.TID 0000.0001)                 1.539261203127869E+00,      /* I =209 */
(PID.TID 0000.0001)                 4.613184806945879E+00,      /* I =210 */
(PID.TID 0000.0001)                 7.673440621444038E+00,      /* I =211 */
(PID.TID 0000.0001)                 1.071133410832144E+01,      /* I =212 */
(PID.TID 0000.0001)                 1.371878641312932E+01,      /* I =213 */
(PID.TID 0000.0001)                 1.668856239288920E+01,      /* I =214 */
(PID.TID 0000.0001)                 1.961448554173001E+01,      /* I =215 */
(PID.TID 0000.0001)                 2.249164253473730E+01,      /* I =216 */
(PID.TID 0000.0001)                 2.531658329184640E+01,      /* I =217 */
(PID.TID 0000.0001)                 2.808752413189615E+01,      /* I =218 */
(PID.TID 0000.0001)                 3.080455967545127E+01,      /* I =219 */
(PID.TID 0000.0001)                 3.346988050052689E+01,      /* I =220 */
(PID.TID 0000.0001)                 3.608797434582620E+01,      /* I =221 */
(PID.TID 0000.0001)                 3.866575716714821E+01,      /* I =222 */
(PID.TID 0000.0001)                 4.121254364943257E+01,      /* I =223 */
(PID.TID 0000.0001)                 4.373974889280662E+01,      /* I =224 */
(PID.TID 0000.0001)                -4.393453430982110E+01,      /* I =225 */
(PID.TID 0000.0001)                -4.178038442567730E+01,      /* I =226 */
(PID.TID 0000.0001)                -3.956261708112124E+01,      /* I =227 */
(PID.TID 0000.0001)                -3.725379506421376E+01,      /* I =228 */
(PID.TID 0000.0001)                -3.483850079511529E+01,      /* I =229 */
(PID.TID 0000.0001)                -3.230959331483472E+01,      /* I =230 */
(PID.TID 0000.0001)                -2.966517957595552E+01,      /* I =231 */
(PID.TID 0000.0001)                -2.690686263605845E+01,      /* I =232 */
(PID.TID 0000.0001)                -2.403886985944711E+01,      /* I =233 */
(PID.TID 0000.0001)                -2.106765802338715E+01,      /* I =234 */
(PID.TID 0000.0001)                -1.800173986973705E+01,      /* I =235 */
(PID.TID 0000.0001)                -1.485158497562946E+01,      /* I =236 */
(PID.TID 0000.0001)                -1.162951062988479E+01,      /* I =237 */
(PID.TID 0000.0001)                -8.349515096797411E+00,      /* I =238 */
(PID.TID 0000.0001)                -5.027030009302705E+00,      /* I =239 */
(PID.TID 0000.0001)                -1.678587505119061E+00,      /* I =240 */
(PID.TID 0000.0001)                 1.678587505119061E+00,      /* I =241 */
(PID.TID 0000.0001)                 5.027030009302705E+00,      /* I =242 */
(PID.TID 0000.0001)                 8.349515096797411E+00,      /* I =243 */
(PID.TID 0000.0001)                 1.162951062988479E+01,      /* I =244 */
(PID.TID 0000.0001)                 1.485158497562946E+01,      /* I =245 */
(PID.TID 0000.0001)                 1.800173986973705E+01,      /* I =246 */
(PID.TID 0000.0001)                 2.106765802338715E+01,      /* I =247 */
(PID.TID 0000.0001)                 2.403886985944711E+01,      /* I =248 */
(PID.TID 0000.0001)                 2.690686263605845E+01,      /* I =249 */
(PID.TID 0000.0001)                 2.966517957595552E+01,      /* I =250 */
(PID.TID 0000.0001)                 3.230959331483472E+01,      /* I =251 */
(PID.TID 0000.0001)                 3.483850079511529E+01,      /* I =252 */
(PID.TID 0000.0001)                 3.725379506421376E+01,      /* I =253 */
(PID.TID 0000.0001)                 3.956261708112124E+01,      /* I =254 */
(PID.TID 0000.0001)                 4.178038442567730E+01,      /* I =255 */
(PID.TID 0000.0001)                 4.393453430982110E+01,      /* I =256 */
(PID.TID 0000.0001)                 4.560478005239464E+01,      /* I =257 */
(PID.TID 0000.0001)                 4.704358727724117E+01,      /* I =258 */
(PID.TID 0000.0001)                 4.877944446611043E+01,      /* I =259 */
(PID.TID 0000.0001)                 5.076553711512697E+01,      /* I =260 */
(PID.TID 0000.0001)                 5.297414841317801E+01,      /* I =261 */
(PID.TID 0000.0001)                 5.538820632905850E+01,      /* I =262 */
(PID.TID 0000.0001)                 5.799565430958209E+01,      /* I =263 */
(PID.TID 0000.0001)                 6.078644034367325E+01,      /* I =264 */
(PID.TID 0000.0001)                 6.375067776971711E+01,      /* I =265 */
(PID.TID 0000.0001)                 6.687738749573657E+01,      /* I =266 */
(PID.TID 0000.0001)                 7.015359282872943E+01,      /* I =267 */
(PID.TID 0000.0001)                 7.356369199444866E+01,      /* I =268 */
(PID.TID 0000.0001)                 7.708910193697932E+01,      /* I =269 */
(PID.TID 0000.0001)                 8.070819219728060E+01,      /* I =270 */
(PID.TID 0000.0001)                 8.439652466417766E+01,      /* I =271 */
(PID.TID 0000.0001)                 8.812739148696656E+01,      /* I =272 */
(PID.TID 0000.0001)                 9.187260851303344E+01,      /* I =273 */
(PID.TID 0000.0001)                 9.560347533582234E+01,      /* I =274 */
(PID.TID 0000.0001)                 9.929180780271940E+01,      /* I =275 */
(PID.TID 0000.0001)                 1.029108980630207E+02,      /* I =276 */
(PID.TID 0000.0001)                 1.064363080055513E+02,      /* I =277 */
(PID.TID 0000.0001)                 1.098464071712706E+02,      /* I =278 */
(PID.TID 0000.0001)                 1.131226125042634E+02,      /* I =279 */
(PID.TID 0000.0001)                 1.162493222302829E+02,      /* I =280 */
(PID.TID 0000.0001)                 1.192135596563268E+02,      /* I =281 */
(PID.TID 0000.0001)                 1.220043456904179E+02,      /* I =282 */
(PID.TID 0000.0001)                 1.246117936709415E+02,      /* I =283 */
(PID.TID 0000.0001)                 1.270258515868220E+02,      /* I =284 */
(PID.TID 0000.0001)                 1.292344628848730E+02,      /* I =285 */
(PID.TID 0000.0001)                 1.312205555338896E+02,      /* I =286 */
(PID.TID 0000.0001)                 1.329564127227588E+02,      /* I =287 */
(PID.TID 0000.0001)                 1.343952199476053E+02,      /* I =288 */
(PID.TID 0000.0001)                 4.613445331470425E+01,      /* I =289 */
(PID.TID 0000.0001)                 4.841916820525199E+01,      /* I =290 */
(PID.TID 0000.0001)                 5.074859240860064E+01,      /* I =291 */
(PID.TID 0000.0001)                 5.314507606124704E+01,      /* I =292 */
(PID.TID 0000.0001)                 5.562359309513431E+01,      /* I =293 */
(PID.TID 0000.0001)                 5.819282544381821E+01,      /* I =294 */
(PID.TID 0000.0001)                 6.085666045157974E+01,      /* I =295 */
(PID.TID 0000.0001)                 6.361538664315079E+01,      /* I =296 */
(PID.TID 0000.0001)                 6.646647582182412E+01,      /* I =297 */
(PID.TID 0000.0001)                 6.940505398383229E+01,      /* I =298 */
(PID.TID 0000.0001)                 7.242418778297153E+01,      /* I =299 */
(PID.TID 0000.0001)                 7.551508511838745E+01,      /* I =300 */
(PID.TID 0000.0001)                 7.866727666535606E+01,      /* I =301 */
(PID.TID 0000.0001)                 8.186881996762574E+01,      /* I =302 */
(PID.TID 0000.0001)                 8.510654844361667E+01,      /* I =303 */
(PID.TID 0000.0001)                 8.836637238123808E+01,      /* I =304 */
(PID.TID 0000.0001)                 9.163362761876192E+01,      /* I =305 */
(PID.TID 0000.0001)                 9.489345155638333E+01,      /* I =306 */
(PID.TID 0000.0001)                 9.813118003237426E+01,      /* I =307 */
(PID.TID 0000.0001)                 1.013327233346439E+02,      /* I =308 */
(PID.TID 0000.0001)                 1.044849148816126E+02,      /* I =309 */
(PID.TID 0000.0001)                 1.075758122170285E+02,      /* I =310 */
(PID.TID 0000.0001)                 1.105949460161677E+02,      /* I =311 */
(PID.TID 0000.0001)                 1.135335241781759E+02,      /* I =312 */
(PID.TID 0000.0001)                 1.163846133568492E+02,      /* I =313 */
(PID.TID 0000.0001)                 1.191433395484203E+02,      /* I =314 */
(PID.TID 0000.0001)                 1.218071745561818E+02,      /* I =315 */
(PID.TID 0000.0001)                 1.243764069048657E+02,      /* I =316 */
(PID.TID 0000.0001)                 1.268549239387529E+02,      /* I =317 */
(PID.TID 0000.0001)                 1.292514075913994E+02,      /* I =318 */
(PID.TID 0000.0001)                 1.315808317947480E+02,      /* I =319 */
(PID.TID 0000.0001)                 1.338655466852958E+02,      /* I =320 */
(PID.TID 0000.0001)                 4.628562803267338E+01,      /* I =321 */
(PID.TID 0000.0001)                 4.886220087935620E+01,      /* I =322 */
(PID.TID 0000.0001)                 5.145436615546523E+01,      /* I =323 */
(PID.TID 0000.0001)                 5.407138855172250E+01,      /* I =324 */
(PID.TID 0000.0001)                 5.672103067311674E+01,      /* I =325 */
(PID.TID 0000.0001)                 5.940926214686320E+01,      /* I =326 */
(PID.TID 0000.0001)                 6.214014949520394E+01,      /* I =327 */
(PID.TID 0000.0001)                 6.491587709888910E+01,      /* I =328 */
(PID.TID 0000.0001)                 6.773684750427596E+01,      /* I =329 */
(PID.TID 0000.0001)                 7.060182263096893E+01,      /* I =330 */
(PID.TID 0000.0001)                 7.350808370442577E+01,      /* I =331 */
(PID.TID 0000.0001)                 7.645160042566749E+01,      /* I =332 */
(PID.TID 0000.0001)                 7.942720742562086E+01,      /* I =333 */
(PID.TID 0000.0001)                 8.242878927656662E+01,      /* I =334 */
(PID.TID 0000.0001)                 8.544947570684961E+01,      /* I =335 */
(PID.TID 0000.0001)                 8.848184748997595E+01,      /* I =336 */
(PID.TID 0000.0001)                 9.151815251002405E+01,      /* I =337 */
(PID.TID 0000.0001)                 9.455052429315039E+01,      /* I =338 */
(PID.TID 0000.0001)                 9.757121072343338E+01,      /* I =339 */
(PID.TID 0000.0001)                 1.005727925743791E+02,      /* I =340 */
(PID.TID 0000.0001)                 1.035483995743325E+02,      /* I =341 */
(PID.TID 0000.0001)                 1.064919162955742E+02,      /* I =342 */
(PID.TID 0000.0001)                 1.093981773690311E+02,      /* I =343 */
(PID.TID 0000.0001)                 1.122631524957240E+02,      /* I =344 */
(PID.TID 0000.0001)                 1.150841229011109E+02,      /* I =345 */
(PID.TID 0000.0001)                 1.178598505047961E+02,      /* I =346 */
(PID.TID 0000.0001)                 1.205907378531368E+02,      /* I =347 */
(PID.TID 0000.0001)                 1.232789693268832E+02,      /* I =348 */
(PID.TID 0000.0001)                 1.259286114482775E+02,      /* I =349 */
(PID.TID 0000.0001)                 1.285456338445348E+02,      /* I =350 */
(PID.TID 0000.0001)                 1.311377991206438E+02,      /* I =351 */
(PID.TID 0000.0001)                 1.337143719673266E+02,      /* I =352 */
(PID.TID 0000.0001)                 4.634242724257599E+01,      /* I =353 */
(PID.TID 0000.0001)                 4.902985825660057E+01,      /* I =354 */
(PID.TID 0000.0001)                 5.172489756824644E+01,      /* I =355 */
(PID.TID 0000.0001)                 5.443222251696448E+01,      /* I =356 */
(PID.TID 0000.0001)                 5.715594946328203E+01,      /* I =357 */
(PID.TID 0000.0001)                 5.989946642975737E+01,      /* I =358 */
(PID.TID 0000.0001)                 6.266531165938376E+01,      /* I =359 */
(PID.TID 0000.0001)                 6.545509927981132E+01,      /* I =360 */
(PID.TID 0000.0001)                 6.826948918400754E+01,      /* I =361 */
(PID.TID 0000.0001)                 7.110819596881898E+01,      /* I =362 */
(PID.TID 0000.0001)                 7.397003104079326E+01,      /* I =363 */
(PID.TID 0000.0001)                 7.685297224777176E+01,      /* I =364 */
(PID.TID 0000.0001)                 7.975425607513890E+01,      /* I =365 */
(PID.TID 0000.0001)                 8.267048816485345E+01,      /* I =366 */
(PID.TID 0000.0001)                 8.559776846785070E+01,      /* I =367 */
(PID.TID 0000.0001)                 8.853182766889645E+01,      /* I =368 */
(PID.TID 0000.0001)                 9.146817233110355E+01,      /* I =369 */
(PID.TID 0000.0001)                 9.440223153214930E+01,      /* I =370 */
(PID.TID 0000.0001)                 9.732951183514655E+01,      /* I =371 */
(PID.TID 0000.0001)                 1.002457439248611E+02,      /* I =372 */
(PID.TID 0000.0001)                 1.031470277522282E+02,      /* I =373 */
(PID.TID 0000.0001)                 1.060299689592067E+02,      /* I =374 */
(PID.TID 0000.0001)                 1.088918040311810E+02,      /* I =375 */
(PID.TID 0000.0001)                 1.117305108159925E+02,      /* I =376 */
(PID.TID 0000.0001)                 1.145449007201887E+02,      /* I =377 */
(PID.TID 0000.0001)                 1.173346883406162E+02,      /* I =378 */
(PID.TID 0000.0001)                 1.201005335702426E+02,      /* I =379 */
(PID.TID 0000.0001)                 1.228440505367180E+02,      /* I =380 */
(PID.TID 0000.0001)                 1.255677774830355E+02,      /* I =381 */
(PID.TID 0000.0001)                 1.282751024317536E+02,      /* I =382 */
(PID.TID 0000.0001)                 1.309701417433994E+02,      /* I =383 */
(PID.TID 0000.0001)                 1.336575727574240E+02,      /* I =384 */
(PID.TID 0000.0001)                 4.635509675007168E+01,      /* I =385 */
(PID.TID 0000.0001)                 4.906731228843647E+01,      /* I =386 */
(PID.TID 0000.0001)                 5.178550688214704E+01,      /* I =387 */
(PID.TID 0000.0001)                 5.451338143305920E+01,      /* I =388 */
(PID.TID 0000.0001)                 5.725422628785682E+01,      /* I =389 */
(PID.TID 0000.0001)                 6.001078938180714E+01,      /* I =390 */
(PID.TID 0000.0001)                 6.278517267805092E+01,      /* I =391 */
(PID.TID 0000.0001)                 6.557876012792660E+01,      /* I =392 */
(PID.TID 0000.0001)                 6.839217806271137E+01,      /* I =393 */
(PID.TID 0000.0001)                 7.122528705331960E+01,      /* I =394 */
(PID.TID 0000.0001)                 7.407720294952740E+01,      /* I =395 */
(PID.TID 0000.0001)                 7.694634400487816E+01,      /* I =396 */
(PID.TID 0000.0001)                 7.983050059595433E+01,      /* I =397 */
(PID.TID 0000.0001)                 8.272692391730165E+01,      /* I =398 */
(PID.TID 0000.0001)                 8.563243005221005E+01,      /* I =399 */
(PID.TID 0000.0001)                 8.854351589505353E+01,      /* I =400 */
(PID.TID 0000.0001)                 9.145648410494647E+01,      /* I =401 */
(PID.TID 0000.0001)                 9.436756994778995E+01,      /* I =402 */
(PID.TID 0000.0001)                 9.727307608269835E+01,      /* I =403 */
(PID.TID 0000.0001)                 1.001694994040457E+02,      /* I =404 */
(PID.TID 0000.0001)                 1.030536559951218E+02,      /* I =405 */
(PID.TID 0000.0001)                 1.059227970504726E+02,      /* I =406 */
(PID.TID 0000.0001)                 1.087747129466804E+02,      /* I =407 */
(PID.TID 0000.0001)                 1.116078219372886E+02,      /* I =408 */
(PID.TID 0000.0001)                 1.144212398720734E+02,      /* I =409 */
(PID.TID 0000.0001)                 1.172148273219491E+02,      /* I =410 */
(PID.TID 0000.0001)                 1.199892106181929E+02,      /* I =411 */
(PID.TID 0000.0001)                 1.227457737121432E+02,      /* I =412 */
(PID.TID 0000.0001)                 1.254866185669408E+02,      /* I =413 */
(PID.TID 0000.0001)                 1.282144931178530E+02,      /* I =414 */
(PID.TID 0000.0001)                 1.309326877115635E+02,      /* I =415 */
(PID.TID 0000.0001)                 1.336449032499283E+02,      /* I =416 */
(PID.TID 0000.0001)                 4.633335959102553E+01,      /* I =417 */
(PID.TID 0000.0001)                 4.900306368153136E+01,      /* I =418 */
(PID.TID 0000.0001)                 5.168157334059644E+01,      /* I =419 */
(PID.TID 0000.0001)                 5.437427547218862E+01,      /* I =420 */
(PID.TID 0000.0001)                 5.708587669057741E+01,      /* I =421 */
(PID.TID 0000.0001)                 5.982021126598028E+01,      /* I =422 */
(PID.TID 0000.0001)                 6.258011023859323E+01,      /* I =423 */
(PID.TID 0000.0001)                 6.536732999118060E+01,      /* I =424 */
(PID.TID 0000.0001)                 6.818253326733634E+01,      /* I =425 */
(PID.TID 0000.0001)                 7.102531356336404E+01,      /* I =426 */
(PID.TID 0000.0001)                 7.389425410648558E+01,      /* I =427 */
(PID.TID 0000.0001)                 7.678701408423883E+01,      /* I =428 */
(PID.TID 0000.0001)                 7.970043646788774E+01,      /* I =429 */
(PID.TID 0000.0001)                 8.263067313730794E+01,      /* I =430 */
(PID.TID 0000.0001)                 8.557332387729433E+01,      /* I =431 */
(PID.TID 0000.0001)                 8.852358620995153E+01,      /* I =432 */
(PID.TID 0000.0001)                 9.147641379004847E+01,      /* I =433 */
(PID.TID 0000.0001)                 9.442667612270567E+01,      /* I =434 */
(PID.TID 0000.0001)                 9.736932686269206E+01,      /* I =435 */
(PID.TID 0000.0001)                 1.002995635321123E+02,      /* I =436 */
(PID.TID 0000.0001)                 1.032129859157612E+02,      /* I =437 */
(PID.TID 0000.0001)                 1.061057458935144E+02,      /* I =438 */
(PID.TID 0000.0001)                 1.089746864366360E+02,      /* I =439 */
(PID.TID 0000.0001)                 1.118174667326637E+02,      /* I =440 */
(PID.TID 0000.0001)                 1.146326700088194E+02,      /* I =441 */
(PID.TID 0000.0001)                 1.174198897614068E+02,      /* I =442 */
(PID.TID 0000.0001)                 1.201797887340197E+02,      /* I =443 */
(PID.TID 0000.0001)                 1.229141233094226E+02,      /* I =444 */
(PID.TID 0000.0001)                 1.256257245278114E+02,      /* I =445 */
(PID.TID 0000.0001)                 1.283184266594035E+02,      /* I =446 */
(PID.TID 0000.0001)                 1.309969363184686E+02,      /* I =447 */
(PID.TID 0000.0001)                 1.336666404089745E+02,      /* I =448 */
(PID.TID 0000.0001)                 4.626025110719338E+01,      /* I =449 */
(PID.TID 0000.0001)                 4.878745635056744E+01,      /* I =450 */
(PID.TID 0000.0001)                 5.133424283285179E+01,      /* I =451 */
(PID.TID 0000.0001)                 5.391202565417380E+01,      /* I =452 */
(PID.TID 0000.0001)                 5.653011949947311E+01,      /* I =453 */
(PID.TID 0000.0001)                 5.919544032454873E+01,      /* I =454 */
(PID.TID 0000.0001)                 6.191247586810386E+01,      /* I =455 */
(PID.TID 0000.0001)                 6.468341670815360E+01,      /* I =456 */
(PID.TID 0000.0001)                 6.750835746526272E+01,      /* I =457 */
(PID.TID 0000.0001)                 7.038551445826999E+01,      /* I =458 */
(PID.TID 0000.0001)                 7.331143760711079E+01,      /* I =459 */
(PID.TID 0000.0001)                 7.628121358687068E+01,      /* I =460 */
(PID.TID 0000.0001)                 7.928866589167856E+01,      /* I =461 */
(PID.TID 0000.0001)                 8.232655937855597E+01,      /* I =462 */
(PID.TID 0000.0001)                 8.538681519305413E+01,      /* I =463 */
(PID.TID 0000.0001)                 8.846073879687214E+01,      /* I =464 */
(PID.TID 0000.0001)                 9.153926120312786E+01,      /* I =465 */
(PID.TID 0000.0001)                 9.461318480694587E+01,      /* I =466 */
(PID.TID 0000.0001)                 9.767344062144403E+01,      /* I =467 */
(PID.TID 0000.0001)                 1.007113341083214E+02,      /* I =468 */
(PID.TID 0000.0001)                 1.037187864131293E+02,      /* I =469 */
(PID.TID 0000.0001)                 1.066885623928892E+02,      /* I =470 */
(PID.TID 0000.0001)                 1.096144855417300E+02,      /* I =471 */
(PID.TID 0000.0001)                 1.124916425347373E+02,      /* I =472 */
(PID.TID 0000.0001)                 1.153165832918464E+02,      /* I =473 */
(PID.TID 0000.0001)                 1.180875241318961E+02,      /* I =474 */
(PID.TID 0000.0001)                 1.208045596754513E+02,      /* I =475 */
(PID.TID 0000.0001)                 1.234698805005269E+02,      /* I =476 */
(PID.TID 0000.0001)                 1.260879743458262E+02,      /* I =477 */
(PID.TID 0000.0001)                 1.286657571671482E+02,      /* I =478 */
(PID.TID 0000.0001)                 1.312125436494325E+02,      /* I =479 */
(PID.TID 0000.0001)                 1.337397488928066E+02,      /* I =480 */
(PID.TID 0000.0001)                 4.606546569017890E+01,      /* I =481 */
(PID.TID 0000.0001)                 4.821961557432270E+01,      /* I =482 */
(PID.TID 0000.0001)                 5.043738291887876E+01,      /* I =483 */
(PID.TID 0000.0001)                 5.274620493578624E+01,      /* I =484 */
(PID.TID 0000.0001)                 5.516149920488472E+01,      /* I =485 */
(PID.TID 0000.0001)                 5.769040668516528E+01,      /* I =486 */
(PID.TID 0000.0001)                 6.033482042404448E+01,      /* I =487 */
(PID.TID 0000.0001)                 6.309313736394157E+01,      /* I =488 */
(PID.TID 0000.0001)                 6.596113014055290E+01,      /* I =489 */
(PID.TID 0000.0001)                 6.893234197661285E+01,      /* I =490 */
(PID.TID 0000.0001)                 7.199826013026295E+01,      /* I =491 */
(PID.TID 0000.0001)                 7.514841502437054E+01,      /* I =492 */
(PID.TID 0000.0001)                 7.837048937011521E+01,      /* I =493 */
(PID.TID 0000.0001)                 8.165048490320260E+01,      /* I =494 */
(PID.TID 0000.0001)                 8.497296999069729E+01,      /* I =495 */
(PID.TID 0000.0001)                 8.832141249488093E+01,      /* I =496 */
(PID.TID 0000.0001)                 9.167858750511905E+01,      /* I =497 */
(PID.TID 0000.0001)                 9.502703000930271E+01,      /* I =498 */
(PID.TID 0000.0001)                 9.834951509679740E+01,      /* I =499 */
(PID.TID 0000.0001)                 1.016295106298848E+02,      /* I =500 */
(PID.TID 0000.0001)                 1.048515849756295E+02,      /* I =501 */
(PID.TID 0000.0001)                 1.080017398697371E+02,      /* I =502 */
(PID.TID 0000.0001)                 1.110676580233872E+02,      /* I =503 */
(PID.TID 0000.0001)                 1.140388698594471E+02,      /* I =504 */
(PID.TID 0000.0001)                 1.169068626360584E+02,      /* I =505 */
(PID.TID 0000.0001)                 1.196651795759555E+02,      /* I =506 */
(PID.TID 0000.0001)                 1.223095933148347E+02,      /* I =507 */
(PID.TID 0000.0001)                 1.248385007951153E+02,      /* I =508 */
(PID.TID 0000.0001)                 1.272537950642138E+02,      /* I =509 */
(PID.TID 0000.0001)                 1.295626170811212E+02,      /* I =510 */
(PID.TID 0000.0001)                 1.317803844256773E+02,      /* I =511 */
(PID.TID 0000.0001)                 1.339345343098211E+02,      /* I =512 */
(PID.TID 0000.0001)                 4.500000000000000E+01,      /* I =513 */
(PID.TID 0000.0001)                 4.620805468796297E+01,      /* I =514 */
(PID.TID 0000.0001)                 4.781369642513039E+01,      /* I =515 */
(PID.TID 0000.0001)                 4.971767671143929E+01,      /* I =516 */
(PID.TID 0000.0001)                 5.187738319787235E+01,      /* I =517 */
(PID.TID 0000.0001)                 5.427004371478710E+01,      /* I =518 */
(PID.TID 0000.0001)                 5.688128325334060E+01,      /* I =519 */
(PID.TID 0000.0001)                 5.970018167786760E+01,      /* I =520 */
(PID.TID 0000.0001)                 6.271654991792347E+01,      /* I =521 */
(PID.TID 0000.0001)                 6.591914604853015E+01,      /* I =522 */
(PID.TID 0000.0001)                 6.929439270484148E+01,      /* I =523 */
(PID.TID 0000.0001)                 7.282545807616151E+01,      /* I =524 */
(PID.TID 0000.0001)                 7.649168830618933E+01,      /* I =525 */
(PID.TID 0000.0001)                 8.026842803787176E+01,      /* I =526 */
(PID.TID 0000.0001)                 8.412726743124185E+01,      /* I =527 */
(PID.TID 0000.0001)                 8.803672008547504E+01,      /* I =528 */
(PID.TID 0000.0001)                 9.196327991452496E+01,      /* I =529 */
(PID.TID 0000.0001)                 9.587273256875815E+01,      /* I =530 */
(PID.TID 0000.0001)                 9.973157196212824E+01,      /* I =531 */
(PID.TID 0000.0001)                 1.035083116938107E+02,      /* I =532 */
(PID.TID 0000.0001)                 1.071745419238385E+02,      /* I =533 */
(PID.TID 0000.0001)                 1.107056072951585E+02,      /* I =534 */
(PID.TID 0000.0001)                 1.140808539514698E+02,      /* I =535 */
(PID.TID 0000.0001)                 1.172834500820765E+02,      /* I =536 */
(PID.TID 0000.0001)                 1.202998183221324E+02,      /* I =537 */
(PID.TID 0000.0001)                 1.231187167466594E+02,      /* I =538 */
(PID.TID 0000.0001)                 1.257299562852129E+02,      /* I =539 */
(PID.TID 0000.0001)                 1.281226168021277E+02,      /* I =540 */
(PID.TID 0000.0001)                 1.302823232885607E+02,      /* I =541 */
(PID.TID 0000.0001)                 1.321863035748696E+02,      /* I =542 */
(PID.TID 0000.0001)                 1.337919453120370E+02,      /* I =543 */
(PID.TID 0000.0001)                 1.350000000000000E+02,      /* I =544 */
(PID.TID 0000.0001)                 3.812261680212765E+01,      /* I =545 */
(PID.TID 0000.0001)                 3.945107468880100E+01,      /* I =546 */
(PID.TID 0000.0001)                 4.103136247924562E+01,      /* I =547 */
(PID.TID 0000.0001)                 4.287749414034464E+01,      /* I =548 */
(PID.TID 0000.0001)                 4.500000000000000E+01,      /* I =549 */
(PID.TID 0000.0001)                 4.740821754024180E+01,      /* I =550 */
(PID.TID 0000.0001)                 5.011126981815580E+01,      /* I =551 */
(PID.TID 0000.0001)                 5.311777720756684E+01,      /* I =552 */
(PID.TID 0000.0001)                 5.643458752433236E+01,      /* I =553 */
(PID.TID 0000.0001)                 6.006474976753349E+01,      /* I =554 */
(PID.TID 0000.0001)                 6.400492030579348E+01,      /* I =555 */
(PID.TID 0000.0001)                 6.824246480576140E+01,      /* I =556 */
(PID.TID 0000.0001)                 7.275269070175320E+01,      /* I =557 */
(PID.TID 0000.0001)                 7.749684528399774E+01,      /* I =558 */
(PID.TID 0000.0001)                 8.242162357679588E+01,      /* I =559 */
(PID.TID 0000.0001)                 8.746080470301297E+01,      /* I =560 */
(PID.TID 0000.0001)                 9.253919529698703E+01,      /* I =561 */
(PID.TID 0000.0001)                 9.757837642320411E+01,      /* I =562 */
(PID.TID 0000.0001)                 1.025031547160023E+02,      /* I =563 */
(PID.TID 0000.0001)                 1.072473092982468E+02,      /* I =564 */
(PID.TID 0000.0001)                 1.117575351942386E+02,      /* I =565 */
(PID.TID 0000.0001)                 1.159950796942065E+02,      /* I =566 */
(PID.TID 0000.0001)                 1.199352502324665E+02,      /* I =567 */
(PID.TID 0000.0001)                 1.235654124756676E+02,      /* I =568 */
(PID.TID 0000.0001)                 1.268822227924332E+02,      /* I =569 */
(PID.TID 0000.0001)                 1.298887301818442E+02,      /* I =570 */
(PID.TID 0000.0001)                 1.325917824597582E+02,      /* I =571 */
(PID.TID 0000.0001)                 1.350000000000000E+02,      /* I =572 */
(PID.TID 0000.0001)                 1.371225058596553E+02,      /* I =573 */
(PID.TID 0000.0001)                 1.389686375207544E+02,      /* I =574 */
(PID.TID 0000.0001)                 1.405489253111990E+02,      /* I =575 */
(PID.TID 0000.0001)                 1.418773831978723E+02,      /* I =576 */
(PID.TID 0000.0001)                 2.728345008207653E+01,      /* I =577 */
(PID.TID 0000.0001)                 2.850420460957644E+01,      /* I =578 */
(PID.TID 0000.0001)                 2.993784737393011E+01,      /* I =579 */
(PID.TID 0000.0001)                 3.161376160493450E+01,      /* I =580 */
(PID.TID 0000.0001)                 3.356541247566764E+01,      /* I =581 */
(PID.TID 0000.0001)                 3.583147134718611E+01,      /* I =582 */
(PID.TID 0000.0001)                 3.845688524781105E+01,      /* I =583 */
(PID.TID 0000.0001)                 4.149354572248240E+01,      /* I =584 */
(PID.TID 0000.0001)                 4.500000000000000E+01,      /* I =585 */
(PID.TID 0000.0001)                 4.903930969999148E+01,      /* I =586 */
(PID.TID 0000.0001)                 5.367372451974152E+01,      /* I =587 */
(PID.TID 0000.0001)                 5.895451406251276E+01,      /* I =588 */
(PID.TID 0000.0001)                 6.490567844389302E+01,      /* I =589 */
(PID.TID 0000.0001)                 7.150237053910378E+01,      /* I =590 */
(PID.TID 0000.0001)                 7.864952388500538E+01,      /* I =591 */
(PID.TID 0000.0001)                 8.617192233608105E+01,      /* I =592 */
(PID.TID 0000.0001)                 9.382807766391895E+01,      /* I =593 */
(PID.TID 0000.0001)                 1.013504761149946E+02,      /* I =594 */
(PID.TID 0000.0001)                 1.084976294608962E+02,      /* I =595 */
(PID.TID 0000.0001)                 1.150943215561070E+02,      /* I =596 */
(PID.TID 0000.0001)                 1.210454859374873E+02,      /* I =597 */
(PID.TID 0000.0001)                 1.263262754802585E+02,      /* I =598 */
(PID.TID 0000.0001)                 1.309606903000085E+02,      /* I =599 */
(PID.TID 0000.0001)                 1.350000000000000E+02,      /* I =600 */
(PID.TID 0000.0001)                 1.385064542775176E+02,      /* I =601 */
(PID.TID 0000.0001)                 1.415431147521889E+02,      /* I =602 */
(PID.TID 0000.0001)                 1.441685286528139E+02,      /* I =603 */
(PID.TID 0000.0001)                 1.464345875243324E+02,      /* I =604 */
(PID.TID 0000.0001)                 1.483862383950655E+02,      /* I =605 */
(PID.TID 0000.0001)                 1.500621526260699E+02,      /* I =606 */
(PID.TID 0000.0001)                 1.514957953904236E+02,      /* I =607 */
(PID.TID 0000.0001)                 1.527165499179235E+02,      /* I =608 */
(PID.TID 0000.0001)                 1.350831169381066E+01,      /* I =609 */
(PID.TID 0000.0001)                 1.421687284508366E+01,      /* I =610 */
(PID.TID 0000.0001)                 1.505747556164526E+01,      /* I =611 */
(PID.TID 0000.0001)                 1.605637281991470E+01,      /* I =612 */
(PID.TID 0000.0001)                 1.724730929824680E+01,      /* I =613 */
(PID.TID 0000.0001)                 1.867466122773631E+01,      /* I =614 */
(PID.TID 0000.0001)                 2.039810484081309E+01,      /* I =615 */
(PID.TID 0000.0001)                 2.249964581464693E+01,      /* I =616 */
(PID.TID 0000.0001)                 2.509432155610697E+01,      /* I =617 */
(PID.TID 0000.0001)                 2.834653192943945E+01,      /* I =618 */
(PID.TID 0000.0001)                 3.249443236877944E+01,      /* I =619 */
(PID.TID 0000.0001)                 3.788343197461707E+01,      /* I =620 */
(PID.TID 0000.0001)                 4.500000000000001E+01,      /* I =621 */
(PID.TID 0000.0001)                 5.445880503754559E+01,      /* I =622 */
(PID.TID 0000.0001)                 6.679789304510098E+01,      /* I =623 */
(PID.TID 0000.0001)                 8.186849014105876E+01,      /* I =624 */
(PID.TID 0000.0001)                 9.813150985894124E+01,      /* I =625 */
(PID.TID 0000.0001)                 1.132021069548990E+02,      /* I =626 */
(PID.TID 0000.0001)                 1.255411949624544E+02,      /* I =627 */
(PID.TID 0000.0001)                 1.350000000000000E+02,      /* I =628 */
(PID.TID 0000.0001)                 1.421165680253829E+02,      /* I =629 */
(PID.TID 0000.0001)                 1.475055676312205E+02,      /* I =630 */
(PID.TID 0000.0001)                 1.516534680705606E+02,      /* I =631 */
(PID.TID 0000.0001)                 1.549056784438930E+02,      /* I =632 */
(PID.TID 0000.0001)                 1.575003541853531E+02,      /* I =633 */
(PID.TID 0000.0001)                 1.596018951591869E+02,      /* I =634 */
(PID.TID 0000.0001)                 1.613253387722637E+02,      /* I =635 */
(PID.TID 0000.0001)                 1.627526907017532E+02,      /* I =636 */
(PID.TID 0000.0001)                 1.639436271800853E+02,      /* I =637 */
(PID.TID 0000.0001)                 1.649425244383547E+02,      /* I =638 */
(PID.TID 0000.0001)                 1.657831271549163E+02,      /* I =639 */
(PID.TID 0000.0001)                 1.664916883061893E+02,      /* I =640 */
(PID.TID 0000.0001)                -1.963279914524959E+00,      /* I =641 */
(PID.TID 0000.0001)                -2.071177432469201E+00,      /* I =642 */
(PID.TID 0000.0001)                -2.199828347428434E+00,      /* I =643 */
(PID.TID 0000.0001)                -2.353804611411069E+00,      /* I =644 */
(PID.TID 0000.0001)                -2.539195296987037E+00,      /* I =645 */
(PID.TID 0000.0001)                -2.764351427094884E+00,      /* I =646 */
(PID.TID 0000.0001)                -3.041099877515010E+00,      /* I =647 */
(PID.TID 0000.0001)                -3.386807206248865E+00,      /* I =648 */
(PID.TID 0000.0001)                -3.828077663918957E+00,      /* I =649 */
(PID.TID 0000.0001)                -4.407824753676410E+00,      /* I =650 */
(PID.TID 0000.0001)                -5.199947690700009E+00,      /* I =651 */
(PID.TID 0000.0001)                -6.343204738499006E+00,      /* I =652 */
(PID.TID 0000.0001)                -8.131509858941257E+00,      /* I =653 */
(PID.TID 0000.0001)                -1.131043662441223E+01,      /* I =654 */
(PID.TID 0000.0001)                -1.843505176017388E+01,      /* I =655 */
(PID.TID 0000.0001)                -4.500000000000001E+01,      /* I =656 */
(PID.TID 0000.0001)                -1.350000000000000E+02,      /* I =657 */
(PID.TID 0000.0001)                -1.615649482398261E+02,      /* I =658 */
(PID.TID 0000.0001)                -1.686895633755878E+02,      /* I =659 */
(PID.TID 0000.0001)                -1.718684901410587E+02,      /* I =660 */
(PID.TID 0000.0001)                -1.736567952615010E+02,      /* I =661 */
(PID.TID 0000.0001)                -1.748000523093000E+02,      /* I =662 */
(PID.TID 0000.0001)                -1.755921752463236E+02,      /* I =663 */
(PID.TID 0000.0001)                -1.761719223360811E+02,      /* I =664 */
(PID.TID 0000.0001)                -1.766131927937512E+02,      /* I =665 */
(PID.TID 0000.0001)                -1.769589001224850E+02,      /* I =666 */
(PID.TID 0000.0001)                -1.772356485729051E+02,      /* I =667 */
(PID.TID 0000.0001)                -1.774608047030130E+02,      /* I =668 */
(PID.TID 0000.0001)                -1.776461953885889E+02,      /* I =669 */
(PID.TID 0000.0001)                -1.778001716525716E+02,      /* I =670 */
(PID.TID 0000.0001)                -1.779288225675308E+02,      /* I =671 */
(PID.TID 0000.0001)                -1.780367200854751E+02,      /* I =672 */
(PID.TID 0000.0001)                -1.717454192383848E+01,      /* I =673 */
(PID.TID 0000.0001)                -1.804861964240525E+01,      /* I =674 */
(PID.TID 0000.0001)                -1.908270435293205E+01,      /* I =675 */
(PID.TID 0000.0001)                -2.030654632376250E+01,      /* I =676 */
(PID.TID 0000.0001)                -2.175753519423861E+01,      /* I =677 */
(PID.TID 0000.0001)                -2.348359127844212E+01,      /* I =678 */
(PID.TID 0000.0001)                -2.554720661345287E+01,      /* I =679 */
(PID.TID 0000.0001)                -2.803103832721200E+01,      /* I =680 */
(PID.TID 0000.0001)                -3.104548593748725E+01,      /* I =681 */
(PID.TID 0000.0001)                -3.473842106505887E+01,      /* I =682 */
(PID.TID 0000.0001)                -3.930603461519532E+01,      /* I =683 */
(PID.TID 0000.0001)                -4.500000000000000E+01,      /* I =684 */
(PID.TID 0000.0001)                -5.211656802538293E+01,      /* I =685 */
(PID.TID 0000.0001)                -6.093484436809284E+01,      /* I =686 */
(PID.TID 0000.0001)                -7.155691605066284E+01,      /* I =687 */
(PID.TID 0000.0001)                -8.365679526150099E+01,      /* I =688 */
(PID.TID 0000.0001)                -9.634320473849901E+01,      /* I =689 */
(PID.TID 0000.0001)                -1.084430839493372E+02,      /* I =690 */
(PID.TID 0000.0001)                -1.190651556319072E+02,      /* I =691 */
(PID.TID 0000.0001)                -1.278834319746171E+02,      /* I =692 */
(PID.TID 0000.0001)                -1.350000000000000E+02,      /* I =693 */
(PID.TID 0000.0001)                -1.406939653848047E+02,      /* I =694 */
(PID.TID 0000.0001)                -1.452615789349411E+02,      /* I =695 */
(PID.TID 0000.0001)                -1.489545140625127E+02,      /* I =696 */
(PID.TID 0000.0001)                -1.519689616727880E+02,      /* I =697 */
(PID.TID 0000.0001)                -1.544527933865471E+02,      /* I =698 */
(PID.TID 0000.0001)                -1.565164087215579E+02,      /* I =699 */
(PID.TID 0000.0001)                -1.582424648057614E+02,      /* I =700 */
(PID.TID 0000.0001)                -1.596934536762375E+02,      /* I =701 */
(PID.TID 0000.0001)                -1.609172956470680E+02,      /* I =702 */
(PID.TID 0000.0001)                -1.619513803575948E+02,      /* I =703 */
(PID.TID 0000.0001)                -1.628254580761615E+02,      /* I =704 */
(PID.TID 0000.0001)                -3.029981832213240E+01,      /* I =705 */
(PID.TID 0000.0001)                -3.158373495141686E+01,      /* I =706 */
(PID.TID 0000.0001)                -3.309052450339908E+01,      /* I =707 */
(PID.TID 0000.0001)                -3.484699040577296E+01,      /* I =708 */
(PID.TID 0000.0001)                -3.688222279243317E+01,      /* I =709 */
(PID.TID 0000.0001)                -3.922837508963766E+01,      /* I =710 */
(PID.TID 0000.0001)                -4.192120377275522E+01,      /* I =711 */
(PID.TID 0000.0001)                -4.500000000000000E+01,      /* I =712 */
(PID.TID 0000.0001)                -4.850645427751761E+01,      /* I =713 */
(PID.TID 0000.0001)                -5.248186361054271E+01,      /* I =714 */
(PID.TID 0000.0001)                -5.696198636759523E+01,      /* I =715 */
(PID.TID 0000.0001)                -6.196896167278800E+01,      /* I =716 */
(PID.TID 0000.0001)                -6.750035418535309E+01,      /* I =717 */
(PID.TID 0000.0001)                -7.351688063250312E+01,      /* I =718 */
(PID.TID 0000.0001)                -7.993260810512692E+01,      /* I =719 */
(PID.TID 0000.0001)                -8.661319279375114E+01,      /* I =720 */
(PID.TID 0000.0001)                -9.338680720624886E+01,      /* I =721 */
(PID.TID 0000.0001)                -1.000673918948731E+02,      /* I =722 */
(PID.TID 0000.0001)                -1.064831193674969E+02,      /* I =723 */
(PID.TID 0000.0001)                -1.124996458146469E+02,      /* I =724 */
(PID.TID 0000.0001)                -1.180310383272120E+02,      /* I =725 */
(PID.TID 0000.0001)                -1.230380136324048E+02,      /* I =726 */
(PID.TID 0000.0001)                -1.275181363894573E+02,      /* I =727 */
(PID.TID 0000.0001)                -1.314935457224824E+02,      /* I =728 */
(PID.TID 0000.0001)                -1.350000000000000E+02,      /* I =729 */
(PID.TID 0000.0001)                -1.380787962272448E+02,      /* I =730 */
(PID.TID 0000.0001)                -1.407716249103623E+02,      /* I =731 */
(PID.TID 0000.0001)                -1.431177772075668E+02,      /* I =732 */
(PID.TID 0000.0001)                -1.451530095942271E+02,      /* I =733 */
(PID.TID 0000.0001)                -1.469094754966009E+02,      /* I =734 */
(PID.TID 0000.0001)                -1.484162650485831E+02,      /* I =735 */
(PID.TID 0000.0001)                -1.497001816778676E+02,      /* I =736 */
(PID.TID 0000.0001)                -4.028232328856072E+01,      /* I =737 */
(PID.TID 0000.0001)                -4.158307099251886E+01,      /* I =738 */
(PID.TID 0000.0001)                -4.315378088027051E+01,      /* I =739 */
(PID.TID 0000.0001)                -4.500000000000000E+01,      /* I =740 */
(PID.TID 0000.0001)                -4.712250585965536E+01,      /* I =741 */
(PID.TID 0000.0001)                -4.952154325950571E+01,      /* I =742 */
(PID.TID 0000.0001)                -5.219803035990336E+01,      /* I =743 */
(PID.TID 0000.0001)                -5.515300959422704E+01,      /* I =744 */
(PID.TID 0000.0001)                -5.838623839506550E+01,      /* I =745 */
(PID.TID 0000.0001)                -6.189433519067496E+01,      /* I =746 */
(PID.TID 0000.0001)                -6.566870339048621E+01,      /* I =747 */
(PID.TID 0000.0001)                -6.969345367623751E+01,      /* I =748 */
(PID.TID 0000.0001)                -7.394362718008530E+01,      /* I =749 */
(PID.TID 0000.0001)                -7.838410895028753E+01,      /* I =750 */
(PID.TID 0000.0001)                -8.296963719996074E+01,      /* I =751 */
(PID.TID 0000.0001)                -8.764619538858894E+01,      /* I =752 */
(PID.TID 0000.0001)                -9.235380461141106E+01,      /* I =753 */
(PID.TID 0000.0001)                -9.703036280003926E+01,      /* I =754 */
(PID.TID 0000.0001)                -1.016158910497125E+02,      /* I =755 */
(PID.TID 0000.0001)                -1.060563728199147E+02,      /* I =756 */
(PID.TID 0000.0001)                -1.103065463237625E+02,      /* I =757 */
(PID.TID 0000.0001)                -1.143312966095138E+02,      /* I =758 */
(PID.TID 0000.0001)                -1.181056648093250E+02,      /* I =759 */
(PID.TID 0000.0001)                -1.216137616049345E+02,      /* I =760 */
(PID.TID 0000.0001)                -1.248469904057730E+02,      /* I =761 */
(PID.TID 0000.0001)                -1.278019696400966E+02,      /* I =762 */
(PID.TID 0000.0001)                -1.304784567404943E+02,      /* I =763 */
(PID.TID 0000.0001)                -1.328774941403447E+02,      /* I =764 */
(PID.TID 0000.0001)                -1.350000000000000E+02,      /* I =765 */
(PID.TID 0000.0001)                -1.368462191197295E+02,      /* I =766 */
(PID.TID 0000.0001)                -1.384169290074811E+02,      /* I =767 */
(PID.TID 0000.0001)                -1.397176767114393E+02,      /* I =768 */
(PID.TID 0000.0001)                 1.356047800523947E+02,      /* I =769 */
(PID.TID 0000.0001)                 1.358367907661329E+02,      /* I =770 */
(PID.TID 0000.0001)                 1.359720382181193E+02,      /* I =771 */
(PID.TID 0000.0001)                 1.360654656901789E+02,      /* I =772 */
(PID.TID 0000.0001)                 1.361344533147042E+02,      /* I =773 */
(PID.TID 0000.0001)                 1.361871219420981E+02,      /* I =774 */
(PID.TID 0000.0001)                 1.362280794509603E+02,      /* I =775 */
(PID.TID 0000.0001)                 1.362602511071934E+02,      /* I =776 */
(PID.TID 0000.0001)                 1.362856280326734E+02,      /* I =777 */
(PID.TID 0000.0001)                 1.363056266270901E+02,      /* I =778 */
(PID.TID 0000.0001)                 1.363212817739446E+02,      /* I =779 */
(PID.TID 0000.0001)                 1.363333595910255E+02,      /* I =780 */
(PID.TID 0000.0001)                 1.363424272425760E+02,      /* I =781 */
(PID.TID 0000.0001)                 1.363488978790713E+02,      /* I =782 */
(PID.TID 0000.0001)                 1.363530600590580E+02,      /* I =783 */
(PID.TID 0000.0001)     2 @  1.363550967500717E+02,             /* I =784:785 */
(PID.TID 0000.0001)                 1.363530600590580E+02,      /* I =786 */
(PID.TID 0000.0001)                 1.363488978790713E+02,      /* I =787 */
(PID.TID 0000.0001)                 1.363424272425760E+02,      /* I =788 */
(PID.TID 0000.0001)                 1.363333595910255E+02,      /* I =789 */
(PID.TID 0000.0001)                 1.363212817739446E+02,      /* I =790 */
(PID.TID 0000.0001)                 1.363056266270901E+02,      /* I =791 */
(PID.TID 0000.0001)                 1.362856280326734E+02,      /* I =792 */
(PID.TID 0000.0001)                 1.362602511071934E+02,      /* I =793 */
(PID.TID 0000.0001)                 1.362280794509603E+02,      /* I =794 */
(PID.TID 0000.0001)                 1.361871219420981E+02,      /* I =795 */
(PID.TID 0000.0001)                 1.361344533147042E+02,      /* I =796 */
(PID.TID 0000.0001)                 1.360654656901789E+02,      /* I =797 */
(PID.TID 0000.0001)                 1.359720382181193E+02,      /* I =798 */
(PID.TID 0000.0001)                 1.358367907661329E+02,      /* I =799 */
(PID.TID 0000.0001)                 1.356047800523947E+02,      /* I =800 */
(PID.TID 0000.0001)                 1.429741484131780E+02,      /* I =801 */
(PID.TID 0000.0001)                 1.438662385640349E+02,      /* I =802 */
(PID.TID 0000.0001)                 1.445849559498076E+02,      /* I =803 */
(PID.TID 0000.0001)                 1.451614992048847E+02,      /* I =804 */
(PID.TID 0000.0001)                 1.456235930951343E+02,      /* I =805 */
(PID.TID 0000.0001)                 1.459941838947049E+02,      /* I =806 */
(PID.TID 0000.0001)                 1.462915723135320E+02,      /* I =807 */
(PID.TID 0000.0001)                 1.465301194994731E+02,      /* I =808 */
(PID.TID 0000.0001)                 1.467210306731168E+02,      /* I =809 */
(PID.TID 0000.0001)                 1.468730316734185E+02,      /* I =810 */
(PID.TID 0000.0001)                 1.469929016779216E+02,      /* I =811 */
(PID.TID 0000.0001)                 1.470858766905774E+02,      /* I =812 */
(PID.TID 0000.0001)                 1.471559494632820E+02,      /* I =813 */
(PID.TID 0000.0001)                 1.472060892568939E+02,      /* I =814 */
(PID.TID 0000.0001)                 1.472383995052517E+02,      /* I =815 */
(PID.TID 0000.0001)     2 @  1.472542262878568E+02,             /* I =816:817 */
(PID.TID 0000.0001)                 1.472383995052517E+02,      /* I =818 */
(PID.TID 0000.0001)                 1.472060892568939E+02,      /* I =819 */
(PID.TID 0000.0001)                 1.471559494632820E+02,      /* I =820 */
(PID.TID 0000.0001)                 1.470858766905774E+02,      /* I =821 */
(PID.TID 0000.0001)                 1.469929016779216E+02,      /* I =822 */
(PID.TID 0000.0001)                 1.468730316734185E+02,      /* I =823 */
(PID.TID 0000.0001)                 1.467210306731168E+02,      /* I =824 */
(PID.TID 0000.0001)                 1.465301194994731E+02,      /* I =825 */
(PID.TID 0000.0001)                 1.462915723135320E+02,      /* I =826 */
(PID.TID 0000.0001)                 1.459941838947049E+02,      /* I =827 */
(PID.TID 0000.0001)                 1.456235930951343E+02,      /* I =828 */
(PID.TID 0000.0001)                 1.451614992048847E+02,      /* I =829 */
(PID.TID 0000.0001)                 1.445849559498076E+02,      /* I =830 */
(PID.TID 0000.0001)                 1.438662385640349E+02,      /* I =831 */
(PID.TID 0000.0001)                 1.429741484131780E+02,      /* I =832 */
(PID.TID 0000.0001)                 1.537506777697171E+02,      /* I =833 */
(PID.TID 0000.0001)                 1.546219929827586E+02,      /* I =834 */
(PID.TID 0000.0001)                 1.553522245128763E+02,      /* I =835 */
(PID.TID 0000.0001)                 1.559611301405529E+02,      /* I =836 */
(PID.TID 0000.0001)                 1.564664758218241E+02,      /* I =837 */
(PID.TID 0000.0001)                 1.568839915189588E+02,      /* I =838 */
(PID.TID 0000.0001)                 1.572273737391663E+02,      /* I =839 */
(PID.TID 0000.0001)                 1.575083574652627E+02,      /* I =840 */
(PID.TID 0000.0001)                 1.577368475042759E+02,      /* I =841 */
(PID.TID 0000.0001)                 1.579210858193004E+02,      /* I =842 */
(PID.TID 0000.0001)                 1.580678312044483E+02,      /* I =843 */
(PID.TID 0000.0001)                 1.581825332673364E+02,      /* I =844 */
(PID.TID 0000.0001)                 1.582694891840075E+02,      /* I =845 */
(PID.TID 0000.0001)                 1.583319769274877E+02,      /* I =846 */
(PID.TID 0000.0001)                 1.583723621695313E+02,      /* I =847 */
(PID.TID 0000.0001)     2 @  1.583921780627114E+02,             /* I =848:849 */
(PID.TID 0000.0001)                 1.583723621695313E+02,      /* I =850 */
(PID.TID 0000.0001)                 1.583319769274877E+02,      /* I =851 */
(PID.TID 0000.0001)                 1.582694891840075E+02,      /* I =852 */
(PID.TID 0000.0001)                 1.581825332673364E+02,      /* I =853 */
(PID.TID 0000.0001)                 1.580678312044483E+02,      /* I =854 */
(PID.TID 0000.0001)                 1.579210858193004E+02,      /* I =855 */
(PID.TID 0000.0001)                 1.577368475042759E+02,      /* I =856 */
(PID.TID 0000.0001)                 1.575083574652627E+02,      /* I =857 */
(PID.TID 0000.0001)                 1.572273737391663E+02,      /* I =858 */
(PID.TID 0000.0001)                 1.568839915189588E+02,      /* I =859 */
(PID.TID 0000.0001)                 1.564664758218241E+02,      /* I =860 */
(PID.TID 0000.0001)                 1.559611301405529E+02,      /* I =861 */
(PID.TID 0000.0001)                 1.553522245128763E+02,      /* I =862 */
(PID.TID 0000.0001)                 1.546219929827586E+02,      /* I =863 */
(PID.TID 0000.0001)                 1.537506777697171E+02,      /* I =864 */
(PID.TID 0000.0001)                 1.670891019369793E+02,      /* I =865 */
(PID.TID 0000.0001)                 1.675923588368622E+02,      /* I =866 */
(PID.TID 0000.0001)                 1.680155395459826E+02,      /* I =867 */
(PID.TID 0000.0001)                 1.683704893701152E+02,      /* I =868 */
(PID.TID 0000.0001)                 1.686672766653560E+02,      /* I =869 */
(PID.TID 0000.0001)                 1.689145066790914E+02,      /* I =870 */
(PID.TID 0000.0001)                 1.691195421753909E+02,      /* I =871 */
(PID.TID 0000.0001)                 1.692886658916785E+02,      /* I =872 */
(PID.TID 0000.0001)                 1.694272074256208E+02,      /* I =873 */
(PID.TID 0000.0001)                 1.695396479954050E+02,      /* I =874 */
(PID.TID 0000.0001)                 1.696297102581859E+02,      /* I =875 */
(PID.TID 0000.0001)                 1.697004364678878E+02,      /* I =876 */
(PID.TID 0000.0001)                 1.697542560751389E+02,      /* I =877 */
(PID.TID 0000.0001)                 1.697930428256914E+02,      /* I =878 */
(PID.TID 0000.0001)                 1.698181610267395E+02,      /* I =879 */
(PID.TID 0000.0001)     2 @  1.698305005959543E+02,             /* I =880:881 */
(PID.TID 0000.0001)                 1.698181610267395E+02,      /* I =882 */
(PID.TID 0000.0001)                 1.697930428256914E+02,      /* I =883 */
(PID.TID 0000.0001)                 1.697542560751389E+02,      /* I =884 */
(PID.TID 0000.0001)                 1.697004364678878E+02,      /* I =885 */
(PID.TID 0000.0001)                 1.696297102581859E+02,      /* I =886 */
(PID.TID 0000.0001)                 1.695396479954050E+02,      /* I =887 */
(PID.TID 0000.0001)                 1.694272074256208E+02,      /* I =888 */
(PID.TID 0000.0001)                 1.692886658916785E+02,      /* I =889 */
(PID.TID 0000.0001)                 1.691195421753909E+02,      /* I =890 */
(PID.TID 0000.0001)                 1.689145066790914E+02,      /* I =891 */
(PID.TID 0000.0001)                 1.686672766653560E+02,      /* I =892 */
(PID.TID 0000.0001)                 1.683704893701152E+02,      /* I =893 */
(PID.TID 0000.0001)                 1.680155395459826E+02,      /* I =894 */
(PID.TID 0000.0001)                 1.675923588368622E+02,      /* I =895 */
(PID.TID 0000.0001)                 1.670891019369793E+02,      /* I =896 */
(PID.TID 0000.0001)                -1.781273914869666E+02,      /* I =897 */
(PID.TID 0000.0001)                -1.782036265972133E+02,      /* I =898 */
(PID.TID 0000.0001)                -1.782676810694432E+02,      /* I =899 */
(PID.TID 0000.0001)                -1.783214124948809E+02,      /* I =900 */
(PID.TID 0000.0001)                -1.783663723812381E+02,      /* I =901 */
(PID.TID 0000.0001)                -1.784038689895125E+02,      /* I =902 */
(PID.TID 0000.0001)                -1.784350110143507E+02,      /* I =903 */
(PID.TID 0000.0001)                -1.784607387968721E+02,      /* I =904 */
(PID.TID 0000.0001)                -1.784818474899759E+02,      /* I =905 */
(PID.TID 0000.0001)                -1.784990050063338E+02,      /* I =906 */
(PID.TID 0000.0001)                -1.785127664769845E+02,      /* I =907 */
(PID.TID 0000.0001)                -1.785235862099515E+02,      /* I =908 */
(PID.TID 0000.0001)                -1.785318276688965E+02,      /* I =909 */
(PID.TID 0000.0001)                -1.785377717132608E+02,      /* I =910 */
(PID.TID 0000.0001)                -1.785416231900660E+02,      /* I =911 */
(PID.TID 0000.0001)     2 @ -1.785435158950535E+02,             /* I =912:913 */
(PID.TID 0000.0001)                -1.785416231900660E+02,      /* I =914 */
(PID.TID 0000.0001)                -1.785377717132608E+02,      /* I =915 */
(PID.TID 0000.0001)                -1.785318276688965E+02,      /* I =916 */
(PID.TID 0000.0001)                -1.785235862099515E+02,      /* I =917 */
(PID.TID 0000.0001)                -1.785127664769845E+02,      /* I =918 */
(PID.TID 0000.0001)                -1.784990050063338E+02,      /* I =919 */
(PID.TID 0000.0001)                -1.784818474899759E+02,      /* I =920 */
(PID.TID 0000.0001)                -1.784607387968721E+02,      /* I =921 */
(PID.TID 0000.0001)                -1.784350110143507E+02,      /* I =922 */
(PID.TID 0000.0001)                -1.784038689895125E+02,      /* I =923 */
(PID.TID 0000.0001)                -1.783663723812381E+02,      /* I =924 */
(PID.TID 0000.0001)                -1.783214124948809E+02,      /* I =925 */
(PID.TID 0000.0001)                -1.782676810694432E+02,      /* I =926 */
(PID.TID 0000.0001)                -1.782036265972133E+02,      /* I =927 */
(PID.TID 0000.0001)                -1.781273914869666E+02,      /* I =928 */
(PID.TID 0000.0001)                -1.635636919944486E+02,      /* I =929 */
(PID.TID 0000.0001)                -1.641860986152708E+02,      /* I =930 */
(PID.TID 0000.0001)                -1.647095429779976E+02,      /* I =931 */
(PID.TID 0000.0001)                -1.651484150243706E+02,      /* I =932 */
(PID.TID 0000.0001)                -1.655150851183874E+02,      /* I =933 */
(PID.TID 0000.0001)                -1.658202141564820E+02,      /* I =934 */
(PID.TID 0000.0001)                -1.660729736782323E+02,      /* I =935 */
(PID.TID 0000.0001)                -1.662812135868707E+02,      /* I =936 */
(PID.TID 0000.0001)                -1.664516004256675E+02,      /* I =937 */
(PID.TID 0000.0001)                -1.665897383525015E+02,      /* I =938 */
(PID.TID 0000.0001)                -1.667002779494069E+02,      /* I =939 */
(PID.TID 0000.0001)                -1.667870140842388E+02,      /* I =940 */
(PID.TID 0000.0001)                -1.668529722477718E+02,      /* I =941 */
(PID.TID 0000.0001)                -1.669004822454509E+02,      /* I =942 */
(PID.TID 0000.0001)                -1.669312381880102E+02,      /* I =943 */
(PID.TID 0000.0001)     2 @ -1.669463440048781E+02,             /* I =944:945 */
(PID.TID 0000.0001)                -1.669312381880102E+02,      /* I =946 */
(PID.TID 0000.0001)                -1.669004822454509E+02,      /* I =947 */
(PID.TID 0000.0001)                -1.668529722477718E+02,      /* I =948 */
(PID.TID 0000.0001)                -1.667870140842388E+02,      /* I =949 */
(PID.TID 0000.0001)                -1.667002779494069E+02,      /* I =950 */
(PID.TID 0000.0001)                -1.665897383525015E+02,      /* I =951 */
(PID.TID 0000.0001)                -1.664516004256675E+02,      /* I =952 */
(PID.TID 0000.0001)                -1.662812135868707E+02,      /* I =953 */
(PID.TID 0000.0001)                -1.660729736782323E+02,      /* I =954 */
(PID.TID 0000.0001)                -1.658202141564820E+02,      /* I =955 */
(PID.TID 0000.0001)                -1.655150851183874E+02,      /* I =956 */
(PID.TID 0000.0001)                -1.651484150243706E+02,      /* I =957 */
(PID.TID 0000.0001)                -1.647095429779976E+02,      /* I =958 */
(PID.TID 0000.0001)                -1.641860986152708E+02,      /* I =959 */
(PID.TID 0000.0001)                -1.635636919944486E+02,      /* I =960 */
(PID.TID 0000.0001)                -1.507864403436732E+02,      /* I =961 */
(PID.TID 0000.0001)                -1.516990564219770E+02,      /* I =962 */
(PID.TID 0000.0001)                -1.524608463079654E+02,      /* I =963 */
(PID.TID 0000.0001)                -1.530931373639416E+02,      /* I =964 */
(PID.TID 0000.0001)                -1.536153866431508E+02,      /* I =965 */
(PID.TID 0000.0001)                -1.540448869165119E+02,      /* I =966 */
(PID.TID 0000.0001)                -1.543966436022907E+02,      /* I =967 */
(PID.TID 0000.0001)                -1.546834167081536E+02,      /* I =968 */
(PID.TID 0000.0001)                -1.549158770988891E+02,      /* I =969 */
(PID.TID 0000.0001)                -1.551028207938503E+02,      /* I =970 */
(PID.TID 0000.0001)                -1.552513980184783E+02,      /* I =971 */
(PID.TID 0000.0001)                -1.553673299911806E+02,      /* I =972 */
(PID.TID 0000.0001)                -1.554550992798113E+02,      /* I =973 */
(PID.TID 0000.0001)                -1.555181078157852E+02,      /* I =974 */
(PID.TID 0000.0001)                -1.555588012105754E+02,      /* I =975 */
(PID.TID 0000.0001)     2 @ -1.555787601279266E+02,             /* I =976:977 */
(PID.TID 0000.0001)                -1.555588012105754E+02,      /* I =978 */
(PID.TID 0000.0001)                -1.555181078157852E+02,      /* I =979 */
(PID.TID 0000.0001)                -1.554550992798113E+02,      /* I =980 */
(PID.TID 0000.0001)                -1.553673299911806E+02,      /* I =981 */
(PID.TID 0000.0001)                -1.552513980184783E+02,      /* I =982 */
(PID.TID 0000.0001)                -1.551028207938503E+02,      /* I =983 */
(PID.TID 0000.0001)                -1.549158770988891E+02,      /* I =984 */
(PID.TID 0000.0001)                -1.546834167081536E+02,      /* I =985 */
(PID.TID 0000.0001)                -1.543966436022907E+02,      /* I =986 */
(PID.TID 0000.0001)                -1.540448869165119E+02,      /* I =987 */
(PID.TID 0000.0001)                -1.536153866431508E+02,      /* I =988 */
(PID.TID 0000.0001)                -1.530931373639416E+02,      /* I =989 */
(PID.TID 0000.0001)                -1.524608463079654E+02,      /* I =990 */
(PID.TID 0000.0001)                -1.516990564219770E+02,      /* I =991 */
(PID.TID 0000.0001)                -1.507864403436732E+02,      /* I =992 */
(PID.TID 0000.0001)                -1.407655371151270E+02,      /* I =993 */
(PID.TID 0000.0001)                -1.415925062800506E+02,      /* I =994 */
(PID.TID 0000.0001)                -1.422395177207667E+02,      /* I =995 */
(PID.TID 0000.0001)                -1.427462049357862E+02,      /* I =996 */
(PID.TID 0000.0001)                -1.431450760612470E+02,      /* I =997 */
(PID.TID 0000.0001)                -1.434608589190018E+02,      /* I =998 */
(PID.TID 0000.0001)                -1.437119443158785E+02,      /* I =999 */
(PID.TID 0000.0001)                -1.439120256541738E+02,      /* I =*** */
(PID.TID 0000.0001)                -1.440713885517225E+02,      /* I =*** */
(PID.TID 0000.0001)                -1.441978277259520E+02,      /* I =*** */
(PID.TID 0000.0001)                -1.442972822074616E+02,      /* I =*** */
(PID.TID 0000.0001)                -1.443742754721886E+02,      /* I =*** */
(PID.TID 0000.0001)                -1.444322225169645E+02,      /* I =*** */
(PID.TID 0000.0001)                -1.444736448704226E+02,      /* I =*** */
(PID.TID 0000.0001)                -1.445003199332504E+02,      /* I =*** */
(PID.TID 0000.0001)     2 @ -1.445133814330592E+02,             /* I =***:*** */
(PID.TID 0000.0001)                -1.445003199332504E+02,      /* I =*** */
(PID.TID 0000.0001)                -1.444736448704226E+02,      /* I =*** */
(PID.TID 0000.0001)                -1.444322225169645E+02,      /* I =*** */
(PID.TID 0000.0001)                -1.443742754721886E+02,      /* I =*** */
(PID.TID 0000.0001)                -1.442972822074616E+02,      /* I =*** */
(PID.TID 0000.0001)                -1.441978277259520E+02,      /* I =*** */
(PID.TID 0000.0001)                -1.440713885517225E+02,      /* I =*** */
(PID.TID 0000.0001)                -1.439120256541738E+02,      /* I =*** */
(PID.TID 0000.0001)                -1.437119443158785E+02,      /* I =*** */
(PID.TID 0000.0001)                -1.434608589190018E+02,      /* I =*** */
(PID.TID 0000.0001)                -1.431450760612470E+02,      /* I =*** */
(PID.TID 0000.0001)                -1.427462049357862E+02,      /* I =*** */
(PID.TID 0000.0001)                -1.422395177207667E+02,      /* I =*** */
(PID.TID 0000.0001)                -1.415925062800506E+02,      /* I =*** */
(PID.TID 0000.0001)                -1.407655371151270E+02,      /* I =*** */
(PID.TID 0000.0001)                -1.343952199476053E+02,      /* I =*** */
(PID.TID 0000.0001)                -1.341632092338671E+02,      /* I =*** */
(PID.TID 0000.0001)                -1.340279617818807E+02,      /* I =*** */
(PID.TID 0000.0001)                -1.339345343098211E+02,      /* I =*** */
(PID.TID 0000.0001)                -1.338655466852958E+02,      /* I =*** */
(PID.TID 0000.0001)                -1.338128780579019E+02,      /* I =*** */
(PID.TID 0000.0001)                -1.337719205490397E+02,      /* I =*** */
(PID.TID 0000.0001)                -1.337397488928066E+02,      /* I =*** */
(PID.TID 0000.0001)                -1.337143719673266E+02,      /* I =*** */
(PID.TID 0000.0001)                -1.336943733729099E+02,      /* I =*** */
(PID.TID 0000.0001)                -1.336787182260554E+02,      /* I =*** */
(PID.TID 0000.0001)                -1.336666404089745E+02,      /* I =*** */
(PID.TID 0000.0001)                -1.336575727574240E+02,      /* I =*** */
(PID.TID 0000.0001)                -1.336511021209287E+02,      /* I =*** */
(PID.TID 0000.0001)                -1.336469399409420E+02,      /* I =*** */
(PID.TID 0000.0001)     2 @ -1.336449032499283E+02,             /* I =***:*** */
(PID.TID 0000.0001)                -1.336469399409420E+02,      /* I =*** */
(PID.TID 0000.0001)                -1.336511021209287E+02,      /* I =*** */
(PID.TID 0000.0001)                -1.336575727574240E+02,      /* I =*** */
(PID.TID 0000.0001)                -1.336666404089745E+02,      /* I =*** */
(PID.TID 0000.0001)                -1.336787182260554E+02,      /* I =*** */
(PID.TID 0000.0001)                -1.336943733729099E+02,      /* I =*** */
(PID.TID 0000.0001)                -1.337143719673266E+02,      /* I =*** */
(PID.TID 0000.0001)                -1.337397488928066E+02,      /* I =*** */
(PID.TID 0000.0001)                -1.337719205490397E+02,      /* I =*** */
(PID.TID 0000.0001)                -1.338128780579019E+02,      /* I =*** */
(PID.TID 0000.0001)                -1.338655466852958E+02,      /* I =*** */
(PID.TID 0000.0001)                -1.339345343098211E+02,      /* I =*** */
(PID.TID 0000.0001)                -1.340279617818807E+02,      /* I =*** */
(PID.TID 0000.0001)                -1.341632092338671E+02,      /* I =*** */
(PID.TID 0000.0001)                -1.343952199476053E+02,      /* I =*** */
(PID.TID 0000.0001)                -1.270258515868220E+02,      /* I =*** */
(PID.TID 0000.0001)                -1.261337614359651E+02,      /* I =*** */
(PID.TID 0000.0001)                -1.254150440501924E+02,      /* I =*** */
(PID.TID 0000.0001)                -1.248385007951153E+02,      /* I =*** */
(PID.TID 0000.0001)                -1.243764069048657E+02,      /* I =*** */
(PID.TID 0000.0001)                -1.240058161052951E+02,      /* I =*** */
(PID.TID 0000.0001)                -1.237084276864680E+02,      /* I =*** */
(PID.TID 0000.0001)                -1.234698805005269E+02,      /* I =*** */
(PID.TID 0000.0001)                -1.232789693268832E+02,      /* I =*** */
(PID.TID 0000.0001)                -1.231269683265815E+02,      /* I =*** */
(PID.TID 0000.0001)                -1.230070983220784E+02,      /* I =*** */
(PID.TID 0000.0001)                -1.229141233094226E+02,      /* I =*** */
(PID.TID 0000.0001)                -1.228440505367180E+02,      /* I =*** */
(PID.TID 0000.0001)                -1.227939107431061E+02,      /* I =*** */
(PID.TID 0000.0001)                -1.227616004947484E+02,      /* I =*** */
(PID.TID 0000.0001)     2 @ -1.227457737121432E+02,             /* I =***:*** */
(PID.TID 0000.0001)                -1.227616004947484E+02,      /* I =*** */
(PID.TID 0000.0001)                -1.227939107431061E+02,      /* I =*** */
(PID.TID 0000.0001)                -1.228440505367180E+02,      /* I =*** */
(PID.TID 0000.0001)                -1.229141233094226E+02,      /* I =*** */
(PID.TID 0000.0001)                -1.230070983220784E+02,      /* I =*** */
(PID.TID 0000.0001)                -1.231269683265815E+02,      /* I =*** */
(PID.TID 0000.0001)                -1.232789693268832E+02,      /* I =*** */
(PID.TID 0000.0001)                -1.234698805005269E+02,      /* I =*** */
(PID.TID 0000.0001)                -1.237084276864680E+02,      /* I =*** */
(PID.TID 0000.0001)                -1.240058161052951E+02,      /* I =*** */
(PID.TID 0000.0001)                -1.243764069048657E+02,      /* I =*** */
(PID.TID 0000.0001)                -1.248385007951153E+02,      /* I =*** */
(PID.TID 0000.0001)                -1.254150440501924E+02,      /* I =*** */
(PID.TID 0000.0001)                -1.261337614359651E+02,      /* I =*** */
(PID.TID 0000.0001)                -1.270258515868220E+02,      /* I =*** */
(PID.TID 0000.0001)                -1.162493222302829E+02,      /* I =*** */
(PID.TID 0000.0001)                -1.153780070172414E+02,      /* I =*** */
(PID.TID 0000.0001)                -1.146477754871237E+02,      /* I =*** */
(PID.TID 0000.0001)                -1.140388698594471E+02,      /* I =*** */
(PID.TID 0000.0001)                -1.135335241781759E+02,      /* I =*** */
(PID.TID 0000.0001)                -1.131160084810412E+02,      /* I =*** */
(PID.TID 0000.0001)                -1.127726262608337E+02,      /* I =*** */
(PID.TID 0000.0001)                -1.124916425347373E+02,      /* I =*** */
(PID.TID 0000.0001)                -1.122631524957240E+02,      /* I =*** */
(PID.TID 0000.0001)                -1.120789141806996E+02,      /* I =*** */
(PID.TID 0000.0001)                -1.119321687955517E+02,      /* I =*** */
(PID.TID 0000.0001)                -1.118174667326637E+02,      /* I =*** */
(PID.TID 0000.0001)                -1.117305108159925E+02,      /* I =*** */
(PID.TID 0000.0001)                -1.116680230725123E+02,      /* I =*** */
(PID.TID 0000.0001)                -1.116276378304687E+02,      /* I =*** */
(PID.TID 0000.0001)     2 @ -1.116078219372886E+02,             /* I =***:*** */
(PID.TID 0000.0001)                -1.116276378304687E+02,      /* I =*** */
(PID.TID 0000.0001)                -1.116680230725123E+02,      /* I =*** */
(PID.TID 0000.0001)                -1.117305108159925E+02,      /* I =*** */
(PID.TID 0000.0001)                -1.118174667326637E+02,      /* I =*** */
(PID.TID 0000.0001)                -1.119321687955517E+02,      /* I =*** */
(PID.TID 0000.0001)                -1.120789141806996E+02,      /* I =*** */
(PID.TID 0000.0001)                -1.122631524957240E+02,      /* I =*** */
(PID.TID 0000.0001)                -1.124916425347373E+02,      /* I =*** */
(PID.TID 0000.0001)                -1.127726262608337E+02,      /* I =*** */
(PID.TID 0000.0001)                -1.131160084810412E+02,      /* I =*** */
(PID.TID 0000.0001)                -1.135335241781759E+02,      /* I =*** */
(PID.TID 0000.0001)                -1.140388698594471E+02,      /* I =*** */
(PID.TID 0000.0001)                -1.146477754871237E+02,      /* I =*** */
(PID.TID 0000.0001)                -1.153780070172414E+02,      /* I =*** */
(PID.TID 0000.0001)                -1.162493222302829E+02,      /* I =*** */
(PID.TID 0000.0001)                -1.029108980630207E+02,      /* I =*** */
(PID.TID 0000.0001)                -1.024076411631378E+02,      /* I =*** */
(PID.TID 0000.0001)                -1.019844604540174E+02,      /* I =*** */
(PID.TID 0000.0001)                -1.016295106298848E+02,      /* I =*** */
(PID.TID 0000.0001)                -1.013327233346439E+02,      /* I =*** */
(PID.TID 0000.0001)                -1.010854933209086E+02,      /* I =*** */
(PID.TID 0000.0001)                -1.008804578246091E+02,      /* I =*** */
(PID.TID 0000.0001)                -1.007113341083214E+02,      /* I =*** */
(PID.TID 0000.0001)                -1.005727925743791E+02,      /* I =*** */
(PID.TID 0000.0001)                -1.004603520045950E+02,      /* I =*** */
(PID.TID 0000.0001)                -1.003702897418141E+02,      /* I =*** */
(PID.TID 0000.0001)                -1.002995635321123E+02,      /* I =*** */
(PID.TID 0000.0001)                -1.002457439248611E+02,      /* I =*** */
(PID.TID 0000.0001)                -1.002069571743086E+02,      /* I =*** */
(PID.TID 0000.0001)                -1.001818389732605E+02,      /* I =*** */
(PID.TID 0000.0001)     2 @ -1.001694994040457E+02,             /* I =***:*** */
(PID.TID 0000.0001)                -1.001818389732605E+02,      /* I =*** */
(PID.TID 0000.0001)                -1.002069571743086E+02,      /* I =*** */
(PID.TID 0000.0001)                -1.002457439248611E+02,      /* I =*** */
(PID.TID 0000.0001)                -1.002995635321123E+02,      /* I =*** */
(PID.TID 0000.0001)                -1.003702897418141E+02,      /* I =*** */
(PID.TID 0000.0001)                -1.004603520045950E+02,      /* I =*** */
(PID.TID 0000.0001)                -1.005727925743791E+02,      /* I =*** */
(PID.TID 0000.0001)                -1.007113341083214E+02,      /* I =*** */
(PID.TID 0000.0001)                -1.008804578246091E+02,      /* I =*** */
(PID.TID 0000.0001)                -1.010854933209086E+02,      /* I =*** */
(PID.TID 0000.0001)                -1.013327233346439E+02,      /* I =*** */
(PID.TID 0000.0001)                -1.016295106298848E+02,      /* I =*** */
(PID.TID 0000.0001)                -1.019844604540174E+02,      /* I =*** */
(PID.TID 0000.0001)                -1.024076411631378E+02,      /* I =*** */
(PID.TID 0000.0001)                -1.029108980630207E+02,      /* I =*** */
(PID.TID 0000.0001)                -8.812739148696656E+01,      /* I =*** */
(PID.TID 0000.0001)                -8.820362659721324E+01,      /* I =*** */
(PID.TID 0000.0001)                -8.826768106944316E+01,      /* I =*** */
(PID.TID 0000.0001)                -8.832141249488093E+01,      /* I =*** */
(PID.TID 0000.0001)                -8.836637238123808E+01,      /* I =*** */
(PID.TID 0000.0001)                -8.840386898951252E+01,      /* I =*** */
(PID.TID 0000.0001)                -8.843501101435068E+01,      /* I =*** */
(PID.TID 0000.0001)                -8.846073879687214E+01,      /* I =*** */
(PID.TID 0000.0001)                -8.848184748997595E+01,      /* I =*** */
(PID.TID 0000.0001)                -8.849900500633379E+01,      /* I =*** */
(PID.TID 0000.0001)                -8.851276647698448E+01,      /* I =*** */
(PID.TID 0000.0001)                -8.852358620995153E+01,      /* I =*** */
(PID.TID 0000.0001)                -8.853182766889645E+01,      /* I =*** */
(PID.TID 0000.0001)                -8.853777171326072E+01,      /* I =*** */
(PID.TID 0000.0001)                -8.854162319006606E+01,      /* I =*** */
(PID.TID 0000.0001)     2 @ -8.854351589505353E+01,             /* I =***:*** */
(PID.TID 0000.0001)                -8.854162319006606E+01,      /* I =*** */
(PID.TID 0000.0001)                -8.853777171326072E+01,      /* I =*** */
(PID.TID 0000.0001)                -8.853182766889645E+01,      /* I =*** */
(PID.TID 0000.0001)                -8.852358620995153E+01,      /* I =*** */
(PID.TID 0000.0001)                -8.851276647698448E+01,      /* I =*** */
(PID.TID 0000.0001)                -8.849900500633379E+01,      /* I =*** */
(PID.TID 0000.0001)                -8.848184748997595E+01,      /* I =*** */
(PID.TID 0000.0001)                -8.846073879687214E+01,      /* I =*** */
(PID.TID 0000.0001)                -8.843501101435068E+01,      /* I =*** */
(PID.TID 0000.0001)                -8.840386898951252E+01,      /* I =*** */
(PID.TID 0000.0001)                -8.836637238123808E+01,      /* I =*** */
(PID.TID 0000.0001)                -8.832141249488093E+01,      /* I =*** */
(PID.TID 0000.0001)                -8.826768106944316E+01,      /* I =*** */
(PID.TID 0000.0001)                -8.820362659721324E+01,      /* I =*** */
(PID.TID 0000.0001)                -8.812739148696656E+01,      /* I =*** */
(PID.TID 0000.0001)                -7.356369199444866E+01,      /* I =*** */
(PID.TID 0000.0001)                -7.418609861527075E+01,      /* I =*** */
(PID.TID 0000.0001)                -7.470954297799760E+01,      /* I =*** */
(PID.TID 0000.0001)                -7.514841502437054E+01,      /* I =*** */
(PID.TID 0000.0001)                -7.551508511838745E+01,      /* I =*** */
(PID.TID 0000.0001)                -7.582021415648202E+01,      /* I =*** */
(PID.TID 0000.0001)                -7.607297367823230E+01,      /* I =*** */
(PID.TID 0000.0001)                -7.628121358687068E+01,      /* I =*** */
(PID.TID 0000.0001)                -7.645160042566749E+01,      /* I =*** */
(PID.TID 0000.0001)                -7.658973835250148E+01,      /* I =*** */
(PID.TID 0000.0001)                -7.670027794940694E+01,      /* I =*** */
(PID.TID 0000.0001)                -7.678701408423883E+01,      /* I =*** */
(PID.TID 0000.0001)                -7.685297224777176E+01,      /* I =*** */
(PID.TID 0000.0001)                -7.690048224545087E+01,      /* I =*** */
(PID.TID 0000.0001)                -7.693123818801020E+01,      /* I =*** */
(PID.TID 0000.0001)     2 @ -7.694634400487816E+01,             /* I =***:*** */
(PID.TID 0000.0001)                -7.693123818801020E+01,      /* I =*** */
(PID.TID 0000.0001)                -7.690048224545087E+01,      /* I =*** */
(PID.TID 0000.0001)                -7.685297224777176E+01,      /* I =*** */
(PID.TID 0000.0001)                -7.678701408423883E+01,      /* I =*** */
(PID.TID 0000.0001)                -7.670027794940694E+01,      /* I =*** */
(PID.TID 0000.0001)                -7.658973835250148E+01,      /* I =*** */
(PID.TID 0000.0001)                -7.645160042566749E+01,      /* I =*** */
(PID.TID 0000.0001)                -7.628121358687068E+01,      /* I =*** */
(PID.TID 0000.0001)                -7.607297367823230E+01,      /* I =*** */
(PID.TID 0000.0001)                -7.582021415648202E+01,      /* I =*** */
(PID.TID 0000.0001)                -7.551508511838745E+01,      /* I =*** */
(PID.TID 0000.0001)                -7.514841502437054E+01,      /* I =*** */
(PID.TID 0000.0001)                -7.470954297799760E+01,      /* I =*** */
(PID.TID 0000.0001)                -7.418609861527075E+01,      /* I =*** */
(PID.TID 0000.0001)                -7.356369199444866E+01,      /* I =*** */
(PID.TID 0000.0001)                -6.078644034367325E+01,      /* I =*** */
(PID.TID 0000.0001)                -6.169905642197705E+01,      /* I =*** */
(PID.TID 0000.0001)                -6.246084630796538E+01,      /* I =*** */
(PID.TID 0000.0001)                -6.309313736394157E+01,      /* I =*** */
(PID.TID 0000.0001)                -6.361538664315079E+01,      /* I =*** */
(PID.TID 0000.0001)                -6.404488691651190E+01,      /* I =*** */
(PID.TID 0000.0001)                -6.439664360229069E+01,      /* I =*** */
(PID.TID 0000.0001)                -6.468341670815360E+01,      /* I =*** */
(PID.TID 0000.0001)                -6.491587709888910E+01,      /* I =*** */
(PID.TID 0000.0001)                -6.510282079385028E+01,      /* I =*** */
(PID.TID 0000.0001)                -6.525139801847828E+01,      /* I =*** */
(PID.TID 0000.0001)                -6.536732999118060E+01,      /* I =*** */
(PID.TID 0000.0001)                -6.545509927981132E+01,      /* I =*** */
(PID.TID 0000.0001)                -6.551810781578520E+01,      /* I =*** */
(PID.TID 0000.0001)                -6.555880121057542E+01,      /* I =*** */
(PID.TID 0000.0001)     2 @ -6.557876012792660E+01,             /* I =***:*** */
(PID.TID 0000.0001)                -6.555880121057542E+01,      /* I =*** */
(PID.TID 0000.0001)                -6.551810781578520E+01,      /* I =*** */
(PID.TID 0000.0001)                -6.545509927981132E+01,      /* I =*** */
(PID.TID 0000.0001)                -6.536732999118060E+01,      /* I =*** */
(PID.TID 0000.0001)                -6.525139801847828E+01,      /* I =*** */
(PID.TID 0000.0001)                -6.510282079385028E+01,      /* I =*** */
(PID.TID 0000.0001)                -6.491587709888910E+01,      /* I =*** */
(PID.TID 0000.0001)                -6.468341670815360E+01,      /* I =*** */
(PID.TID 0000.0001)                -6.439664360229069E+01,      /* I =*** */
(PID.TID 0000.0001)                -6.404488691651190E+01,      /* I =*** */
(PID.TID 0000.0001)                -6.361538664315079E+01,      /* I =*** */
(PID.TID 0000.0001)                -6.309313736394157E+01,      /* I =*** */
(PID.TID 0000.0001)                -6.246084630796538E+01,      /* I =*** */
(PID.TID 0000.0001)                -6.169905642197705E+01,      /* I =*** */
(PID.TID 0000.0001)                -6.078644034367325E+01,      /* I =*** */
(PID.TID 0000.0001)                -5.076553711512697E+01,      /* I =*** */
(PID.TID 0000.0001)                -5.159250628005059E+01,      /* I =*** */
(PID.TID 0000.0001)                -5.223951772076675E+01,      /* I =*** */
(PID.TID 0000.0001)                -5.274620493578624E+01,      /* I =*** */
(PID.TID 0000.0001)                -5.314507606124704E+01,      /* I =*** */
(PID.TID 0000.0001)                -5.346085891900177E+01,      /* I =*** */
(PID.TID 0000.0001)                -5.371194431587846E+01,      /* I =*** */
(PID.TID 0000.0001)                -5.391202565417380E+01,      /* I =*** */
(PID.TID 0000.0001)                -5.407138855172250E+01,      /* I =*** */
(PID.TID 0000.0001)                -5.419782772595202E+01,      /* I =*** */
(PID.TID 0000.0001)                -5.429728220746157E+01,      /* I =*** */
(PID.TID 0000.0001)                -5.437427547218862E+01,      /* I =*** */
(PID.TID 0000.0001)                -5.443222251696448E+01,      /* I =*** */
(PID.TID 0000.0001)                -5.447364487042261E+01,      /* I =*** */
(PID.TID 0000.0001)                -5.450031993325046E+01,      /* I =*** */
(PID.TID 0000.0001)     2 @ -5.451338143305920E+01,             /* I =***:*** */
(PID.TID 0000.0001)                -5.450031993325046E+01,      /* I =*** */
(PID.TID 0000.0001)                -5.447364487042261E+01,      /* I =*** */
(PID.TID 0000.0001)                -5.443222251696448E+01,      /* I =*** */
(PID.TID 0000.0001)                -5.437427547218862E+01,      /* I =*** */
(PID.TID 0000.0001)                -5.429728220746157E+01,      /* I =*** */
(PID.TID 0000.0001)                -5.419782772595202E+01,      /* I =*** */
(PID.TID 0000.0001)                -5.407138855172250E+01,      /* I =*** */
(PID.TID 0000.0001)                -5.391202565417380E+01,      /* I =*** */
(PID.TID 0000.0001)                -5.371194431587846E+01,      /* I =*** */
(PID.TID 0000.0001)                -5.346085891900177E+01,      /* I =*** */
(PID.TID 0000.0001)                -5.314507606124704E+01,      /* I =*** */
(PID.TID 0000.0001)                -5.274620493578624E+01,      /* I =*** */
(PID.TID 0000.0001)                -5.223951772076675E+01,      /* I =*** */
(PID.TID 0000.0001)                -5.159250628005059E+01,      /* I =*** */
(PID.TID 0000.0001)                -5.076553711512697E+01,      /* I =*** */
(PID.TID 0000.0001)                -1.350000000000000E+02,      /* I =*** */
(PID.TID 0000.0001)                -1.362080546879630E+02,      /* I =*** */
(PID.TID 0000.0001)                -1.378136964251304E+02,      /* I =*** */
(PID.TID 0000.0001)                -1.397176767114393E+02,      /* I =*** */
(PID.TID 0000.0001)                -1.418773831978723E+02,      /* I =*** */
(PID.TID 0000.0001)                -1.442700437147871E+02,      /* I =*** */
(PID.TID 0000.0001)                -1.468812832533406E+02,      /* I =*** */
(PID.TID 0000.0001)                -1.497001816778676E+02,      /* I =*** */
(PID.TID 0000.0001)                -1.527165499179235E+02,      /* I =*** */
(PID.TID 0000.0001)                -1.559191460485302E+02,      /* I =*** */
(PID.TID 0000.0001)                -1.592943927048415E+02,      /* I =*** */
(PID.TID 0000.0001)                -1.628254580761615E+02,      /* I =*** */
(PID.TID 0000.0001)                -1.664916883061893E+02,      /* I =*** */
(PID.TID 0000.0001)                -1.702684280378718E+02,      /* I =*** */
(PID.TID 0000.0001)                -1.741272674312418E+02,      /* I =*** */
(PID.TID 0000.0001)                -1.780367200854751E+02,      /* I =*** */
(PID.TID 0000.0001)                 1.780367200854751E+02,      /* I =*** */
(PID.TID 0000.0001)                 1.741272674312418E+02,      /* I =*** */
(PID.TID 0000.0001)                 1.702684280378718E+02,      /* I =*** */
(PID.TID 0000.0001)                 1.664916883061893E+02,      /* I =*** */
(PID.TID 0000.0001)                 1.628254580761615E+02,      /* I =*** */
(PID.TID 0000.0001)                 1.592943927048415E+02,      /* I =*** */
(PID.TID 0000.0001)                 1.559191460485302E+02,      /* I =*** */
(PID.TID 0000.0001)                 1.527165499179235E+02,      /* I =*** */
(PID.TID 0000.0001)                 1.497001816778676E+02,      /* I =*** */
(PID.TID 0000.0001)                 1.468812832533406E+02,      /* I =*** */
(PID.TID 0000.0001)                 1.442700437147871E+02,      /* I =*** */
(PID.TID 0000.0001)                 1.418773831978723E+02,      /* I =*** */
(PID.TID 0000.0001)                 1.397176767114393E+02,      /* I =*** */
(PID.TID 0000.0001)                 1.378136964251304E+02,      /* I =*** */
(PID.TID 0000.0001)                 1.362080546879630E+02,      /* I =*** */
(PID.TID 0000.0001)                 1.350000000000000E+02,      /* I =*** */
(PID.TID 0000.0001)                -1.281226168021277E+02,      /* I =*** */
(PID.TID 0000.0001)                -1.294510746888010E+02,      /* I =*** */
(PID.TID 0000.0001)                -1.310313624792456E+02,      /* I =*** */
(PID.TID 0000.0001)                -1.328774941403447E+02,      /* I =*** */
(PID.TID 0000.0001)                -1.350000000000000E+02,      /* I =*** */
(PID.TID 0000.0001)                -1.374082175402418E+02,      /* I =*** */
(PID.TID 0000.0001)                -1.401112698181558E+02,      /* I =*** */
(PID.TID 0000.0001)                -1.431177772075668E+02,      /* I =*** */
(PID.TID 0000.0001)                -1.464345875243324E+02,      /* I =*** */
(PID.TID 0000.0001)                -1.500647497675335E+02,      /* I =*** */
(PID.TID 0000.0001)                -1.540049203057935E+02,      /* I =*** */
(PID.TID 0000.0001)                -1.582424648057614E+02,      /* I =*** */
(PID.TID 0000.0001)                -1.627526907017532E+02,      /* I =*** */
(PID.TID 0000.0001)                -1.674968452839977E+02,      /* I =*** */
(PID.TID 0000.0001)                -1.724216235767959E+02,      /* I =*** */
(PID.TID 0000.0001)                -1.774608047030130E+02,      /* I =*** */
(PID.TID 0000.0001)                 1.774608047030130E+02,      /* I =*** */
(PID.TID 0000.0001)                 1.724216235767959E+02,      /* I =*** */
(PID.TID 0000.0001)                 1.674968452839977E+02,      /* I =*** */
(PID.TID 0000.0001)                 1.627526907017532E+02,      /* I =*** */
(PID.TID 0000.0001)                 1.582424648057614E+02,      /* I =*** */
(PID.TID 0000.0001)                 1.540049203057935E+02,      /* I =*** */
(PID.TID 0000.0001)                 1.500647497675335E+02,      /* I =*** */
(PID.TID 0000.0001)                 1.464345875243324E+02,      /* I =*** */
(PID.TID 0000.0001)                 1.431177772075668E+02,      /* I =*** */
(PID.TID 0000.0001)                 1.401112698181558E+02,      /* I =*** */
(PID.TID 0000.0001)                 1.374082175402418E+02,      /* I =*** */
(PID.TID 0000.0001)                 1.350000000000000E+02,      /* I =*** */
(PID.TID 0000.0001)                 1.328774941403447E+02,      /* I =*** */
(PID.TID 0000.0001)                 1.310313624792456E+02,      /* I =*** */
(PID.TID 0000.0001)                 1.294510746888010E+02,      /* I =*** */
(PID.TID 0000.0001)                 1.281226168021277E+02,      /* I =*** */
(PID.TID 0000.0001)                -1.172834500820765E+02,      /* I =*** */
(PID.TID 0000.0001)                -1.185042046095764E+02,      /* I =*** */
(PID.TID 0000.0001)                -1.199378473739301E+02,      /* I =*** */
(PID.TID 0000.0001)                -1.216137616049345E+02,      /* I =*** */
(PID.TID 0000.0001)                -1.235654124756676E+02,      /* I =*** */
(PID.TID 0000.0001)                -1.258314713471861E+02,      /* I =*** */
(PID.TID 0000.0001)                -1.284568852478110E+02,      /* I =*** */
(PID.TID 0000.0001)                -1.314935457224824E+02,      /* I =*** */
(PID.TID 0000.0001)                -1.350000000000000E+02,      /* I =*** */
(PID.TID 0000.0001)                -1.390393096999915E+02,      /* I =*** */
(PID.TID 0000.0001)                -1.436737245197415E+02,      /* I =*** */
(PID.TID 0000.0001)                -1.489545140625127E+02,      /* I =*** */
(PID.TID 0000.0001)                -1.549056784438930E+02,      /* I =*** */
(PID.TID 0000.0001)                -1.615023705391038E+02,      /* I =*** */
(PID.TID 0000.0001)                -1.686495238850054E+02,      /* I =*** */
(PID.TID 0000.0001)                -1.761719223360811E+02,      /* I =*** */
(PID.TID 0000.0001)                 1.761719223360811E+02,      /* I =*** */
(PID.TID 0000.0001)                 1.686495238850054E+02,      /* I =*** */
(PID.TID 0000.0001)                 1.615023705391038E+02,      /* I =*** */
(PID.TID 0000.0001)                 1.549056784438930E+02,      /* I =*** */
(PID.TID 0000.0001)                 1.489545140625127E+02,      /* I =*** */
(PID.TID 0000.0001)                 1.436737245197415E+02,      /* I =*** */
(PID.TID 0000.0001)                 1.390393096999915E+02,      /* I =*** */
(PID.TID 0000.0001)                 1.350000000000000E+02,      /* I =*** */
(PID.TID 0000.0001)                 1.314935457224824E+02,      /* I =*** */
(PID.TID 0000.0001)                 1.284568852478110E+02,      /* I =*** */
(PID.TID 0000.0001)                 1.258314713471861E+02,      /* I =*** */
(PID.TID 0000.0001)                 1.235654124756676E+02,      /* I =*** */
(PID.TID 0000.0001)                 1.216137616049345E+02,      /* I =*** */
(PID.TID 0000.0001)                 1.199378473739301E+02,      /* I =*** */
(PID.TID 0000.0001)                 1.185042046095764E+02,      /* I =*** */
(PID.TID 0000.0001)                 1.172834500820765E+02,      /* I =*** */
(PID.TID 0000.0001)                -1.035083116938107E+02,      /* I =*** */
(PID.TID 0000.0001)                -1.042168728450837E+02,      /* I =*** */
(PID.TID 0000.0001)                -1.050574755616452E+02,      /* I =*** */
(PID.TID 0000.0001)                -1.060563728199147E+02,      /* I =*** */
(PID.TID 0000.0001)                -1.072473092982468E+02,      /* I =*** */
(PID.TID 0000.0001)                -1.086746612277363E+02,      /* I =*** */
(PID.TID 0000.0001)                -1.103981048408131E+02,      /* I =*** */
(PID.TID 0000.0001)                -1.124996458146469E+02,      /* I =*** */
(PID.TID 0000.0001)                -1.150943215561070E+02,      /* I =*** */
(PID.TID 0000.0001)                -1.183465319294394E+02,      /* I =*** */
(PID.TID 0000.0001)                -1.224944323687794E+02,      /* I =*** */
(PID.TID 0000.0001)                -1.278834319746171E+02,      /* I =*** */
(PID.TID 0000.0001)                -1.350000000000000E+02,      /* I =*** */
(PID.TID 0000.0001)                -1.444588050375456E+02,      /* I =*** */
(PID.TID 0000.0001)                -1.567978930451009E+02,      /* I =*** */
(PID.TID 0000.0001)                -1.718684901410587E+02,      /* I =*** */
(PID.TID 0000.0001)                 1.718684901410587E+02,      /* I =*** */
(PID.TID 0000.0001)                 1.567978930451009E+02,      /* I =*** */
(PID.TID 0000.0001)                 1.444588050375456E+02,      /* I =*** */
(PID.TID 0000.0001)                 1.350000000000000E+02,      /* I =*** */
(PID.TID 0000.0001)                 1.278834319746171E+02,      /* I =*** */
(PID.TID 0000.0001)                 1.224944323687794E+02,      /* I =*** */
(PID.TID 0000.0001)                 1.183465319294394E+02,      /* I =*** */
(PID.TID 0000.0001)                 1.150943215561070E+02,      /* I =*** */
(PID.TID 0000.0001)                 1.124996458146469E+02,      /* I =*** */
(PID.TID 0000.0001)                 1.103981048408131E+02,      /* I =*** */
(PID.TID 0000.0001)                 1.086746612277363E+02,      /* I =*** */
(PID.TID 0000.0001)                 1.072473092982468E+02,      /* I =*** */
(PID.TID 0000.0001)                 1.060563728199147E+02,      /* I =*** */
(PID.TID 0000.0001)                 1.050574755616452E+02,      /* I =*** */
(PID.TID 0000.0001)                 1.042168728450837E+02,      /* I =*** */
(PID.TID 0000.0001)                 1.035083116938107E+02,      /* I =*** */
(PID.TID 0000.0001)                -8.803672008547504E+01,      /* I =*** */
(PID.TID 0000.0001)                -8.792882256753080E+01,      /* I =*** */
(PID.TID 0000.0001)                -8.780017165257156E+01,      /* I =*** */
(PID.TID 0000.0001)                -8.764619538858894E+01,      /* I =*** */
(PID.TID 0000.0001)                -8.746080470301297E+01,      /* I =*** */
(PID.TID 0000.0001)                -8.723564857290512E+01,      /* I =*** */
(PID.TID 0000.0001)                -8.695890012248499E+01,      /* I =*** */
(PID.TID 0000.0001)                -8.661319279375114E+01,      /* I =*** */
(PID.TID 0000.0001)                -8.617192233608105E+01,      /* I =*** */
(PID.TID 0000.0001)                -8.559217524632359E+01,      /* I =*** */
(PID.TID 0000.0001)                -8.480005230930000E+01,      /* I =*** */
(PID.TID 0000.0001)                -8.365679526150099E+01,      /* I =*** */
(PID.TID 0000.0001)                -8.186849014105876E+01,      /* I =*** */
(PID.TID 0000.0001)                -7.868956337558778E+01,      /* I =*** */
(PID.TID 0000.0001)                -7.156494823982612E+01,      /* I =*** */
(PID.TID 0000.0001)                -4.500000000000000E+01,      /* I =*** */
(PID.TID 0000.0001)                 4.500000000000000E+01,      /* I =*** */
(PID.TID 0000.0001)                 7.156494823982612E+01,      /* I =*** */
(PID.TID 0000.0001)                 7.868956337558778E+01,      /* I =*** */
(PID.TID 0000.0001)                 8.186849014105876E+01,      /* I =*** */
(PID.TID 0000.0001)                 8.365679526150099E+01,      /* I =*** */
(PID.TID 0000.0001)                 8.480005230930000E+01,      /* I =*** */
(PID.TID 0000.0001)                 8.559217524632359E+01,      /* I =*** */
(PID.TID 0000.0001)                 8.617192233608105E+01,      /* I =*** */
(PID.TID 0000.0001)                 8.661319279375114E+01,      /* I =*** */
(PID.TID 0000.0001)                 8.695890012248499E+01,      /* I =*** */
(PID.TID 0000.0001)                 8.723564857290512E+01,      /* I =*** */
(PID.TID 0000.0001)                 8.746080470301297E+01,      /* I =*** */
(PID.TID 0000.0001)                 8.764619538858894E+01,      /* I =*** */
(PID.TID 0000.0001)                 8.780017165257156E+01,      /* I =*** */
(PID.TID 0000.0001)                 8.792882256753080E+01,      /* I =*** */
(PID.TID 0000.0001)                 8.803672008547504E+01,      /* I =*** */
(PID.TID 0000.0001)                -7.282545807616151E+01,      /* I =*** */
(PID.TID 0000.0001)                -7.195138035759476E+01,      /* I =*** */
(PID.TID 0000.0001)                -7.091729564706796E+01,      /* I =*** */
(PID.TID 0000.0001)                -6.969345367623751E+01,      /* I =*** */
(PID.TID 0000.0001)                -6.824246480576140E+01,      /* I =*** */
(PID.TID 0000.0001)                -6.651640872155789E+01,      /* I =*** */
(PID.TID 0000.0001)                -6.445279338654713E+01,      /* I =*** */
(PID.TID 0000.0001)                -6.196896167278800E+01,      /* I =*** */
(PID.TID 0000.0001)                -5.895451406251276E+01,      /* I =*** */
(PID.TID 0000.0001)                -5.526157893494113E+01,      /* I =*** */
(PID.TID 0000.0001)                -5.069396538480469E+01,      /* I =*** */
(PID.TID 0000.0001)                -4.500000000000000E+01,      /* I =*** */
(PID.TID 0000.0001)                -3.788343197461707E+01,      /* I =*** */
(PID.TID 0000.0001)                -2.906515563190716E+01,      /* I =*** */
(PID.TID 0000.0001)                -1.844308394933716E+01,      /* I =*** */
(PID.TID 0000.0001)                -6.343204738499006E+00,      /* I =*** */
(PID.TID 0000.0001)                 6.343204738499006E+00,      /* I =*** */
(PID.TID 0000.0001)                 1.844308394933716E+01,      /* I =*** */
(PID.TID 0000.0001)                 2.906515563190716E+01,      /* I =*** */
(PID.TID 0000.0001)                 3.788343197461707E+01,      /* I =*** */
(PID.TID 0000.0001)                 4.500000000000000E+01,      /* I =*** */
(PID.TID 0000.0001)                 5.069396538480469E+01,      /* I =*** */
(PID.TID 0000.0001)                 5.526157893494113E+01,      /* I =*** */
(PID.TID 0000.0001)                 5.895451406251276E+01,      /* I =*** */
(PID.TID 0000.0001)                 6.196896167278800E+01,      /* I =*** */
(PID.TID 0000.0001)                 6.445279338654713E+01,      /* I =*** */
(PID.TID 0000.0001)                 6.651640872155789E+01,      /* I =*** */
(PID.TID 0000.0001)                 6.824246480576140E+01,      /* I =*** */
(PID.TID 0000.0001)                 6.969345367623751E+01,      /* I =*** */
(PID.TID 0000.0001)                 7.091729564706796E+01,      /* I =*** */
(PID.TID 0000.0001)                 7.195138035759476E+01,      /* I =*** */
(PID.TID 0000.0001)                 7.282545807616151E+01,      /* I =*** */
(PID.TID 0000.0001)                -5.970018167786760E+01,      /* I =*** */
(PID.TID 0000.0001)                -5.841626504858314E+01,      /* I =*** */
(PID.TID 0000.0001)                -5.690947549660092E+01,      /* I =*** */
(PID.TID 0000.0001)                -5.515300959422704E+01,      /* I =*** */
(PID.TID 0000.0001)                -5.311777720756684E+01,      /* I =*** */
(PID.TID 0000.0001)                -5.077162491036235E+01,      /* I =*** */
(PID.TID 0000.0001)                -4.807879622724479E+01,      /* I =*** */
(PID.TID 0000.0001)                -4.500000000000000E+01,      /* I =*** */
(PID.TID 0000.0001)                -4.149354572248240E+01,      /* I =*** */
(PID.TID 0000.0001)                -3.751813638945730E+01,      /* I =*** */
(PID.TID 0000.0001)                -3.303801363240477E+01,      /* I =*** */
(PID.TID 0000.0001)                -2.803103832721200E+01,      /* I =*** */
(PID.TID 0000.0001)                -2.249964581464693E+01,      /* I =*** */
(PID.TID 0000.0001)                -1.648311936749689E+01,      /* I =*** */
(PID.TID 0000.0001)                -1.006739189487309E+01,      /* I =*** */
(PID.TID 0000.0001)                -3.386807206248865E+00,      /* I =*** */
(PID.TID 0000.0001)                 3.386807206248865E+00,      /* I =*** */
(PID.TID 0000.0001)                 1.006739189487309E+01,      /* I =*** */
(PID.TID 0000.0001)                 1.648311936749689E+01,      /* I =*** */
(PID.TID 0000.0001)                 2.249964581464693E+01,      /* I =*** */
(PID.TID 0000.0001)                 2.803103832721200E+01,      /* I =*** */
(PID.TID 0000.0001)                 3.303801363240477E+01,      /* I =*** */
(PID.TID 0000.0001)                 3.751813638945730E+01,      /* I =*** */
(PID.TID 0000.0001)                 4.149354572248240E+01,      /* I =*** */
(PID.TID 0000.0001)                 4.500000000000000E+01,      /* I =*** */
(PID.TID 0000.0001)                 4.807879622724479E+01,      /* I =*** */
(PID.TID 0000.0001)                 5.077162491036235E+01,      /* I =*** */
(PID.TID 0000.0001)                 5.311777720756684E+01,      /* I =*** */
(PID.TID 0000.0001)                 5.515300959422704E+01,      /* I =*** */
(PID.TID 0000.0001)                 5.690947549660092E+01,      /* I =*** */
(PID.TID 0000.0001)                 5.841626504858314E+01,      /* I =*** */
(PID.TID 0000.0001)                 5.970018167786760E+01,      /* I =*** */
(PID.TID 0000.0001)                -4.971767671143929E+01,      /* I =*** */
(PID.TID 0000.0001)                -4.841692900748115E+01,      /* I =*** */
(PID.TID 0000.0001)                -4.684621911972950E+01,      /* I =*** */
(PID.TID 0000.0001)                -4.500000000000000E+01,      /* I =*** */
(PID.TID 0000.0001)                -4.287749414034464E+01,      /* I =*** */
(PID.TID 0000.0001)                -4.047845674049430E+01,      /* I =*** */
(PID.TID 0000.0001)                -3.780196964009664E+01,      /* I =*** */
(PID.TID 0000.0001)                -3.484699040577296E+01,      /* I =*** */
(PID.TID 0000.0001)                -3.161376160493450E+01,      /* I =*** */
(PID.TID 0000.0001)                -2.810566480932504E+01,      /* I =*** */
(PID.TID 0000.0001)                -2.433129660951379E+01,      /* I =*** */
(PID.TID 0000.0001)                -2.030654632376250E+01,      /* I =*** */
(PID.TID 0000.0001)                -1.605637281991470E+01,      /* I =*** */
(PID.TID 0000.0001)                -1.161589104971248E+01,      /* I =*** */
(PID.TID 0000.0001)                -7.030362800039265E+00,      /* I =*** */
(PID.TID 0000.0001)                -2.353804611411069E+00,      /* I =*** */
(PID.TID 0000.0001)                 2.353804611411069E+00,      /* I =*** */
(PID.TID 0000.0001)                 7.030362800039265E+00,      /* I =*** */
(PID.TID 0000.0001)                 1.161589104971248E+01,      /* I =*** */
(PID.TID 0000.0001)                 1.605637281991470E+01,      /* I =*** */
(PID.TID 0000.0001)                 2.030654632376250E+01,      /* I =*** */
(PID.TID 0000.0001)                 2.433129660951379E+01,      /* I =*** */
(PID.TID 0000.0001)                 2.810566480932504E+01,      /* I =*** */
(PID.TID 0000.0001)                 3.161376160493450E+01,      /* I =*** */
(PID.TID 0000.0001)                 3.484699040577296E+01,      /* I =*** */
(PID.TID 0000.0001)                 3.780196964009664E+01,      /* I =*** */
(PID.TID 0000.0001)                 4.047845674049430E+01,      /* I =*** */
(PID.TID 0000.0001)                 4.287749414034464E+01,      /* I =*** */
(PID.TID 0000.0001)                 4.500000000000000E+01,      /* I =*** */
(PID.TID 0000.0001)                 4.684621911972950E+01,      /* I =*** */
(PID.TID 0000.0001)                 4.841692900748115E+01,      /* I =*** */
(PID.TID 0000.0001)                 4.971767671143929E+01       /* I =*** */
(PID.TID 0000.0001)     ;
(PID.TID 0000.0001) ycoord =   /* P-point Y coord ( m - cartesian, degrees - spherical ) */
(PID.TID 0000.0001)                -3.497677942598243E+01,      /* J =  1 */
(PID.TID 0000.0001)                -3.374005967394886E+01,      /* J =  2 */
(PID.TID 0000.0001)                -3.220655175667454E+01,      /* J =  3 */
(PID.TID 0000.0001)                -3.045756348838641E+01       /* J =  4 */
(PID.TID 0000.0001)     ;
(PID.TID 0000.0001) rcoord =   /* P-point R coordinate (  units of r ) */
(PID.TID 0000.0001)                -2.500000000000000E+01,      /* K =  1 */
(PID.TID 0000.0001)                -8.500000000000000E+01,      /* K =  2 */
(PID.TID 0000.0001)                -1.700000000000000E+02,      /* K =  3 */
(PID.TID 0000.0001)                -2.900000000000000E+02,      /* K =  4 */
(PID.TID 0000.0001)                -4.550000000000000E+02,      /* K =  5 */
(PID.TID 0000.0001)                -6.700000000000000E+02,      /* K =  6 */
(PID.TID 0000.0001)                -9.350000000000000E+02,      /* K =  7 */
(PID.TID 0000.0001)                -1.250000000000000E+03,      /* K =  8 */
(PID.TID 0000.0001)                -1.615000000000000E+03,      /* K =  9 */
(PID.TID 0000.0001)                -2.030000000000000E+03,      /* K = 10 */
(PID.TID 0000.0001)                -2.495000000000000E+03,      /* K = 11 */
(PID.TID 0000.0001)                -3.010000000000000E+03,      /* K = 12 */
(PID.TID 0000.0001)                -3.575000000000000E+03,      /* K = 13 */
(PID.TID 0000.0001)                -4.190000000000000E+03,      /* K = 14 */
(PID.TID 0000.0001)                -4.855000000000000E+03       /* K = 15 */
(PID.TID 0000.0001)     ;
(PID.TID 0000.0001) rF =   /* W-Interf. R coordinate (  units of r ) */
(PID.TID 0000.0001)                 0.000000000000000E+00,      /* K =  1 */
(PID.TID 0000.0001)                -5.000000000000000E+01,      /* K =  2 */
(PID.TID 0000.0001)                -1.200000000000000E+02,      /* K =  3 */
(PID.TID 0000.0001)                -2.200000000000000E+02,      /* K =  4 */
(PID.TID 0000.0001)                -3.600000000000000E+02,      /* K =  5 */
(PID.TID 0000.0001)                -5.500000000000000E+02,      /* K =  6 */
(PID.TID 0000.0001)                -7.900000000000000E+02,      /* K =  7 */
(PID.TID 0000.0001)                -1.080000000000000E+03,      /* K =  8 */
(PID.TID 0000.0001)                -1.420000000000000E+03,      /* K =  9 */
(PID.TID 0000.0001)                -1.810000000000000E+03,      /* K = 10 */
(PID.TID 0000.0001)                -2.250000000000000E+03,      /* K = 11 */
(PID.TID 0000.0001)                -2.740000000000000E+03,      /* K = 12 */
(PID.TID 0000.0001)                -3.280000000000000E+03,      /* K = 13 */
(PID.TID 0000.0001)                -3.870000000000000E+03,      /* K = 14 */
(PID.TID 0000.0001)                -4.510000000000000E+03,      /* K = 15 */
(PID.TID 0000.0001)                -5.200000000000000E+03       /* K = 16 */
(PID.TID 0000.0001)     ;
(PID.TID 0000.0001) dxF =  /* dxF(:,1,:,1) ( m - cartesian, degrees - spherical ) */
(PID.TID 0000.0001)                 1.202082051331828E+05,      /* I =  1 */
(PID.TID 0000.0001)                 1.563594089971120E+05,      /* I =  2 */
(PID.TID 0000.0001)                 1.835530058121492E+05,      /* I =  3 */
(PID.TID 0000.0001)                 2.045883481718707E+05,      /* I =  4 */
(PID.TID 0000.0001)                 2.218350349844185E+05,      /* I =  5 */
(PID.TID 0000.0001)                 2.364352994647058E+05,      /* I =  6 */
(PID.TID 0000.0001)                 2.490022710862746E+05,      /* I =  7 */
(PID.TID 0000.0001)                 2.598919724358304E+05,      /* I =  8 */
(PID.TID 0000.0001)                 2.693210245495156E+05,      /* I =  9 */
(PID.TID 0000.0001)                 2.774243179696503E+05,      /* I = 10 */
(PID.TID 0000.0001)                 2.842862532064524E+05,      /* I = 11 */
(PID.TID 0000.0001)                 2.899590699694043E+05,      /* I = 12 */
(PID.TID 0000.0001)                 2.944742915095688E+05,      /* I = 13 */
(PID.TID 0000.0001)                 2.978501920522794E+05,      /* I = 14 */
(PID.TID 0000.0001)                 3.000967749619962E+05,      /* I = 15 */
(PID.TID 0000.0001)     2 @  3.012190981969055E+05,             /* I = 16: 17 */
(PID.TID 0000.0001)                 3.000967749619962E+05,      /* I = 18 */
(PID.TID 0000.0001)                 2.978501920522794E+05,      /* I = 19 */
(PID.TID 0000.0001)                 2.944742915095688E+05,      /* I = 20 */
(PID.TID 0000.0001)                 2.899590699694043E+05,      /* I = 21 */
(PID.TID 0000.0001)                 2.842862532064524E+05,      /* I = 22 */
(PID.TID 0000.0001)                 2.774243179696503E+05,      /* I = 23 */
(PID.TID 0000.0001)                 2.693210245495156E+05,      /* I = 24 */
(PID.TID 0000.0001)                 2.598919724358304E+05,      /* I = 25 */
(PID.TID 0000.0001)                 2.490022710862746E+05,      /* I = 26 */
(PID.TID 0000.0001)                 2.364352994647058E+05,      /* I = 27 */
(PID.TID 0000.0001)                 2.218350349844185E+05,      /* I = 28 */
(PID.TID 0000.0001)                 2.045883481718707E+05,      /* I = 29 */
(PID.TID 0000.0001)                 1.835530058121492E+05,      /* I = 30 */
(PID.TID 0000.0001)                 1.563594089971120E+05,      /* I = 31 */
(PID.TID 0000.0001)                 1.202082051331828E+05,      /* I = 32 */
(PID.TID 0000.0001)                 2.220405216043041E+05,      /* I = 33 */
(PID.TID 0000.0001)                 2.253995103830070E+05,      /* I = 34 */
(PID.TID 0000.0001)                 2.314062085131702E+05,      /* I = 35 */
(PID.TID 0000.0001)                 2.390627990003637E+05,      /* I = 36 */
(PID.TID 0000.0001)                 2.474852428920030E+05,      /* I = 37 */
(PID.TID 0000.0001)                 2.560456633895537E+05,      /* I = 38 */
(PID.TID 0000.0001)                 2.643436975229842E+05,      /* I = 39 */
(PID.TID 0000.0001)                 2.721339566565751E+05,      /* I = 40 */
(PID.TID 0000.0001)                 2.792653032262129E+05,      /* I = 41 */
(PID.TID 0000.0001)                 2.856413272949365E+05,      /* I = 42 */
(PID.TID 0000.0001)                 2.911971973735105E+05,      /* I = 43 */
(PID.TID 0000.0001)                 2.958868484465457E+05,      /* I = 44 */
(PID.TID 0000.0001)                 2.996761960679202E+05,      /* I = 45 */
(PID.TID 0000.0001)                 3.025397245330187E+05,      /* I = 46 */
(PID.TID 0000.0001)                 3.044589008849406E+05,      /* I = 47 */
(PID.TID 0000.0001)     2 @  3.054215712079756E+05,             /* I = 48: 49 */
(PID.TID 0000.0001)                 3.044589008849406E+05,      /* I = 50 */
(PID.TID 0000.0001)                 3.025397245330187E+05,      /* I = 51 */
(PID.TID 0000.0001)                 2.996761960679202E+05,      /* I = 52 */
(PID.TID 0000.0001)                 2.958868484465457E+05,      /* I = 53 */
(PID.TID 0000.0001)                 2.911971973735105E+05,      /* I = 54 */
(PID.TID 0000.0001)                 2.856413272949365E+05,      /* I = 55 */
(PID.TID 0000.0001)                 2.792653032262129E+05,      /* I = 56 */
(PID.TID 0000.0001)                 2.721339566565751E+05,      /* I = 57 */
(PID.TID 0000.0001)                 2.643436975229842E+05,      /* I = 58 */
(PID.TID 0000.0001)                 2.560456633895537E+05,      /* I = 59 */
(PID.TID 0000.0001)                 2.474852428920030E+05,      /* I = 60 */
(PID.TID 0000.0001)                 2.390627990003637E+05,      /* I = 61 */
(PID.TID 0000.0001)                 2.314062085131702E+05,      /* I = 62 */
(PID.TID 0000.0001)                 2.253995103830070E+05,      /* I = 63 */
(PID.TID 0000.0001)                 2.220405216043041E+05,      /* I = 64 */
(PID.TID 0000.0001)                 2.694110134598581E+05,      /* I = 65 */
(PID.TID 0000.0001)                 2.705231413075805E+05,      /* I = 66 */
(PID.TID 0000.0001)                 2.726579649676481E+05,      /* I = 67 */
(PID.TID 0000.0001)                 2.756548836326629E+05,      /* I = 68 */
(PID.TID 0000.0001)                 2.793107344025355E+05,      /* I = 69 */
(PID.TID 0000.0001)                 2.834083988863162E+05,      /* I = 70 */
(PID.TID 0000.0001)                 2.877383482793128E+05,      /* I = 71 */
(PID.TID 0000.0001)                 2.921111682925773E+05,      /* I = 72 */
(PID.TID 0000.0001)                 2.963626409677758E+05,      /* I = 73 */
(PID.TID 0000.0001)                 3.003541383476192E+05,      /* I = 74 */
(PID.TID 0000.0001)                 3.039707489303444E+05,      /* I = 75 */
(PID.TID 0000.0001)                 3.071187272280302E+05,      /* I = 76 */
(PID.TID 0000.0001)                 3.097231021673243E+05,      /* I = 77 */
(PID.TID 0000.0001)                 3.117257745272702E+05,      /* I = 78 */
(PID.TID 0000.0001)                 3.130841559279307E+05,      /* I = 79 */
(PID.TID 0000.0001)     2 @  3.137703202065625E+05,             /* I = 80: 81 */
(PID.TID 0000.0001)                 3.130841559279307E+05,      /* I = 82 */
(PID.TID 0000.0001)                 3.117257745272702E+05,      /* I = 83 */
(PID.TID 0000.0001)                 3.097231021673243E+05,      /* I = 84 */
(PID.TID 0000.0001)                 3.071187272280302E+05,      /* I = 85 */
(PID.TID 0000.0001)                 3.039707489303444E+05,      /* I = 86 */
(PID.TID 0000.0001)                 3.003541383476192E+05,      /* I = 87 */
(PID.TID 0000.0001)                 2.963626409677758E+05,      /* I = 88 */
(PID.TID 0000.0001)                 2.921111682925773E+05,      /* I = 89 */
(PID.TID 0000.0001)                 2.877383482793128E+05,      /* I = 90 */
(PID.TID 0000.0001)                 2.834083988863162E+05,      /* I = 91 */
(PID.TID 0000.0001)                 2.793107344025355E+05,      /* I = 92 */
(PID.TID 0000.0001)                 2.756548836326629E+05,      /* I = 93 */
(PID.TID 0000.0001)                 2.726579649676481E+05,      /* I = 94 */
(PID.TID 0000.0001)                 2.705231413075805E+05,      /* I = 95 */
(PID.TID 0000.0001)                 2.694110134598581E+05,      /* I = 96 */
(PID.TID 0000.0001)                 2.945429307892709E+05,      /* I = 97 */
(PID.TID 0000.0001)                 2.951012585576127E+05,      /* I = 98 */
(PID.TID 0000.0001)                 2.961902079695312E+05,      /* I = 99 */
(PID.TID 0000.0001)                 2.977567820180416E+05,      /* I =100 */
(PID.TID 0000.0001)                 2.997270416250828E+05,      /* I =101 */
(PID.TID 0000.0001)                 3.020116016720391E+05,      /* I =102 */
(PID.TID 0000.0001)                 3.045114407675102E+05,      /* I =103 */
(PID.TID 0000.0001)                 3.071233596908996E+05,      /* I =104 */
(PID.TID 0000.0001)                 3.097446928597904E+05,      /* I =105 */
(PID.TID 0000.0001)                 3.122771345611457E+05,      /* I =106 */
(PID.TID 0000.0001)                 3.146297218670249E+05,      /* I =107 */
(PID.TID 0000.0001)                 3.167211063730236E+05,      /* I =108 */
(PID.TID 0000.0001)                 3.184812669057048E+05,      /* I =109 */
(PID.TID 0000.0001)                 3.198527947158009E+05,      /* I =110 */
(PID.TID 0000.0001)                 3.207918466481293E+05,      /* I =111 */
(PID.TID 0000.0001)     2 @  3.212688630823077E+05,             /* I =112:113 */
(PID.TID 0000.0001)                 3.207918466481293E+05,      /* I =114 */
(PID.TID 0000.0001)                 3.198527947158009E+05,      /* I =115 */
(PID.TID 0000.0001)                 3.184812669057048E+05,      /* I =116 */
(PID.TID 0000.0001)                 3.167211063730236E+05,      /* I =117 */
(PID.TID 0000.0001)                 3.146297218670249E+05,      /* I =118 */
(PID.TID 0000.0001)                 3.122771345611457E+05,      /* I =119 */
(PID.TID 0000.0001)                 3.097446928597904E+05,      /* I =120 */
(PID.TID 0000.0001)                 3.071233596908996E+05,      /* I =121 */
(PID.TID 0000.0001)                 3.045114407675102E+05,      /* I =122 */
(PID.TID 0000.0001)                 3.020116016720391E+05,      /* I =123 */
(PID.TID 0000.0001)                 2.997270416250828E+05,      /* I =124 */
(PID.TID 0000.0001)                 2.977567820180416E+05,      /* I =125 */
(PID.TID 0000.0001)                 2.961902079695312E+05,      /* I =126 */
(PID.TID 0000.0001)                 2.951012585576127E+05,      /* I =127 */
(PID.TID 0000.0001)                 2.945429307892709E+05,      /* I =128 */
(PID.TID 0000.0001)                 3.012844832048790E+05,      /* I =129 */
(PID.TID 0000.0001)                 3.017314519159184E+05,      /* I =130 */
(PID.TID 0000.0001)                 3.026061571839506E+05,      /* I =131 */
(PID.TID 0000.0001)                 3.038712499122208E+05,      /* I =132 */
(PID.TID 0000.0001)                 3.054733694195115E+05,      /* I =133 */
(PID.TID 0000.0001)                 3.073460170047538E+05,      /* I =134 */
(PID.TID 0000.0001)                 3.094129252024922E+05,      /* I =135 */
(PID.TID 0000.0001)                 3.115916488673079E+05,      /* I =136 */
(PID.TID 0000.0001)                 3.137971415338805E+05,      /* I =137 */
(PID.TID 0000.0001)                 3.159451387866950E+05,      /* I =138 */
(PID.TID 0000.0001)                 3.179552321069062E+05,      /* I =139 */
(PID.TID 0000.0001)                 3.197535693737994E+05,      /* I =140 */
(PID.TID 0000.0001)                 3.212751560265627E+05,      /* I =141 */
(PID.TID 0000.0001)                 3.224657535572011E+05,      /* I =142 */
(PID.TID 0000.0001)                 3.232833825614068E+05,      /* I =143 */
(PID.TID 0000.0001)     2 @  3.236994750082736E+05,             /* I =144:145 */
(PID.TID 0000.0001)                 3.232833825614068E+05,      /* I =146 */
(PID.TID 0000.0001)                 3.224657535572011E+05,      /* I =147 */
(PID.TID 0000.0001)                 3.212751560265627E+05,      /* I =148 */
(PID.TID 0000.0001)                 3.197535693737994E+05,      /* I =149 */
(PID.TID 0000.0001)                 3.179552321069062E+05,      /* I =150 */
(PID.TID 0000.0001)                 3.159451387866950E+05,      /* I =151 */
(PID.TID 0000.0001)                 3.137971415338805E+05,      /* I =152 */
(PID.TID 0000.0001)                 3.115916488673079E+05,      /* I =153 */
(PID.TID 0000.0001)                 3.094129252024922E+05,      /* I =154 */
(PID.TID 0000.0001)                 3.073460170047538E+05,      /* I =155 */
(PID.TID 0000.0001)                 3.054733694195115E+05,      /* I =156 */
(PID.TID 0000.0001)                 3.038712499122208E+05,      /* I =157 */
(PID.TID 0000.0001)                 3.026061571839506E+05,      /* I =158 */
(PID.TID 0000.0001)                 3.017314519159184E+05,      /* I =159 */
(PID.TID 0000.0001)                 3.012844832048790E+05,      /* I =160 */
(PID.TID 0000.0001)                 2.900303768613599E+05,      /* I =161 */
(PID.TID 0000.0001)                 2.906706565369413E+05,      /* I =162 */
(PID.TID 0000.0001)                 2.919164736866363E+05,      /* I =163 */
(PID.TID 0000.0001)                 2.937020375736682E+05,      /* I =164 */
(PID.TID 0000.0001)                 2.959369960765984E+05,      /* I =165 */
(PID.TID 0000.0001)                 2.985143016243727E+05,      /* I =166 */
(PID.TID 0000.0001)                 3.013180578167061E+05,      /* I =167 */
(PID.TID 0000.0001)                 3.042303595100670E+05,      /* I =168 */
(PID.TID 0000.0001)                 3.071366753786757E+05,      /* I =169 */
(PID.TID 0000.0001)                 3.099297624247245E+05,      /* I =170 */
(PID.TID 0000.0001)                 3.125123546816480E+05,      /* I =171 */
(PID.TID 0000.0001)                 3.147989491998900E+05,      /* I =172 */
(PID.TID 0000.0001)                 3.167169842566044E+05,      /* I =173 */
(PID.TID 0000.0001)                 3.182076300546702E+05,      /* I =174 */
(PID.TID 0000.0001)                 3.192263328390683E+05,      /* I =175 */
(PID.TID 0000.0001)     2 @  3.197432274745630E+05,             /* I =176:177 */
(PID.TID 0000.0001)                 3.192263328390683E+05,      /* I =178 */
(PID.TID 0000.0001)                 3.182076300546702E+05,      /* I =179 */
(PID.TID 0000.0001)                 3.167169842566044E+05,      /* I =180 */
(PID.TID 0000.0001)                 3.147989491998900E+05,      /* I =181 */
(PID.TID 0000.0001)                 3.125123546816480E+05,      /* I =182 */
(PID.TID 0000.0001)                 3.099297624247245E+05,      /* I =183 */
(PID.TID 0000.0001)                 3.071366753786757E+05,      /* I =184 */
(PID.TID 0000.0001)                 3.042303595100670E+05,      /* I =185 */
(PID.TID 0000.0001)                 3.013180578167061E+05,      /* I =186 */
(PID.TID 0000.0001)                 2.985143016243727E+05,      /* I =187 */
(PID.TID 0000.0001)                 2.959369960765984E+05,      /* I =188 */
(PID.TID 0000.0001)                 2.937020375736682E+05,      /* I =189 */
(PID.TID 0000.0001)                 2.919164736866363E+05,      /* I =190 */
(PID.TID 0000.0001)                 2.906706565369413E+05,      /* I =191 */
(PID.TID 0000.0001)                 2.900303768613599E+05,      /* I =192 */
(PID.TID 0000.0001)                 2.599949918261881E+05,      /* I =193 */
(PID.TID 0000.0001)                 2.613928019944271E+05,      /* I =194 */
(PID.TID 0000.0001)                 2.640534701478141E+05,      /* I =195 */
(PID.TID 0000.0001)                 2.677421336598871E+05,      /* I =196 */
(PID.TID 0000.0001)                 2.721754665816094E+05,      /* I =197 */
(PID.TID 0000.0001)                 2.770677082849345E+05,      /* I =198 */
(PID.TID 0000.0001)                 2.821597581064359E+05,      /* I =199 */
(PID.TID 0000.0001)                 2.872314003732699E+05,      /* I =200 */
(PID.TID 0000.0001)                 2.921023023566398E+05,      /* I =201 */
(PID.TID 0000.0001)                 2.966276260863712E+05,      /* I =202 */
(PID.TID 0000.0001)                 3.006921489793282E+05,      /* I =203 */
(PID.TID 0000.0001)                 3.042048495507529E+05,      /* I =204 */
(PID.TID 0000.0001)                 3.070946554358933E+05,      /* I =205 */
(PID.TID 0000.0001)                 3.093074100109176E+05,      /* I =206 */
(PID.TID 0000.0001)                 3.108038593575396E+05,      /* I =207 */
(PID.TID 0000.0001)     2 @  3.115584474900804E+05,             /* I =208:209 */
(PID.TID 0000.0001)                 3.108038593575396E+05,      /* I =210 */
(PID.TID 0000.0001)                 3.093074100109176E+05,      /* I =211 */
(PID.TID 0000.0001)                 3.070946554358933E+05,      /* I =212 */
(PID.TID 0000.0001)                 3.042048495507529E+05,      /* I =213 */
(PID.TID 0000.0001)                 3.006921489793282E+05,      /* I =214 */
(PID.TID 0000.0001)                 2.966276260863712E+05,      /* I =215 */
(PID.TID 0000.0001)                 2.921023023566398E+05,      /* I =216 */
(PID.TID 0000.0001)                 2.872314003732699E+05,      /* I =217 */
(PID.TID 0000.0001)                 2.821597581064359E+05,      /* I =218 */
(PID.TID 0000.0001)                 2.770677082849345E+05,      /* I =219 */
(PID.TID 0000.0001)                 2.721754665816094E+05,      /* I =220 */
(PID.TID 0000.0001)                 2.677421336598871E+05,      /* I =221 */
(PID.TID 0000.0001)                 2.640534701478141E+05,      /* I =222 */
(PID.TID 0000.0001)                 2.613928019944271E+05,      /* I =223 */
(PID.TID 0000.0001)                 2.599949918261881E+05,      /* I =224 */
(PID.TID 0000.0001)                 2.048868197919576E+05,      /* I =225 */
(PID.TID 0000.0001)                 2.098871716285330E+05,      /* I =226 */
(PID.TID 0000.0001)                 2.183552757714993E+05,      /* I =227 */
(PID.TID 0000.0001)                 2.284883157115105E+05,      /* I =228 */
(PID.TID 0000.0001)                 2.390259833947229E+05,      /* I =229 */
(PID.TID 0000.0001)                 2.492723940965486E+05,      /* I =230 */
(PID.TID 0000.0001)                 2.588804175347912E+05,      /* I =231 */
(PID.TID 0000.0001)                 2.676821762100863E+05,      /* I =232 */
(PID.TID 0000.0001)                 2.755951392607118E+05,      /* I =233 */
(PID.TID 0000.0001)                 2.825758551959615E+05,      /* I =234 */
(PID.TID 0000.0001)                 2.885983146955540E+05,      /* I =235 */
(PID.TID 0000.0001)                 2.936442966455010E+05,      /* I =236 */
(PID.TID 0000.0001)                 2.976994255899062E+05,      /* I =237 */
(PID.TID 0000.0001)                 3.007518957476707E+05,      /* I =238 */
(PID.TID 0000.0001)                 3.027923688443646E+05,      /* I =239 */
(PID.TID 0000.0001)     2 @  3.038143430929827E+05,             /* I =240:241 */
(PID.TID 0000.0001)                 3.027923688443646E+05,      /* I =242 */
(PID.TID 0000.0001)                 3.007518957476707E+05,      /* I =243 */
(PID.TID 0000.0001)                 2.976994255899062E+05,      /* I =244 */
(PID.TID 0000.0001)                 2.936442966455010E+05,      /* I =245 */
(PID.TID 0000.0001)                 2.885983146955540E+05,      /* I =246 */
(PID.TID 0000.0001)                 2.825758551959615E+05,      /* I =247 */
(PID.TID 0000.0001)                 2.755951392607118E+05,      /* I =248 */
(PID.TID 0000.0001)                 2.676821762100863E+05,      /* I =249 */
(PID.TID 0000.0001)                 2.588804175347912E+05,      /* I =250 */
(PID.TID 0000.0001)                 2.492723940965486E+05,      /* I =251 */
(PID.TID 0000.0001)                 2.390259833947229E+05,      /* I =252 */
(PID.TID 0000.0001)                 2.284883157115105E+05,      /* I =253 */
(PID.TID 0000.0001)                 2.183552757714993E+05,      /* I =254 */
(PID.TID 0000.0001)                 2.098871716285330E+05,      /* I =255 */
(PID.TID 0000.0001)                 2.048868197919576E+05,      /* I =256 */
(PID.TID 0000.0001)                 1.202082051331828E+05,      /* I =257 */
(PID.TID 0000.0001)                 1.563594089971120E+05,      /* I =258 */
(PID.TID 0000.0001)                 1.835530058121492E+05,      /* I =259 */
(PID.TID 0000.0001)                 2.045883481718707E+05,      /* I =260 */
(PID.TID 0000.0001)                 2.218350349844185E+05,      /* I =261 */
(PID.TID 0000.0001)                 2.364352994647058E+05,      /* I =262 */
(PID.TID 0000.0001)                 2.490022710862746E+05,      /* I =263 */
(PID.TID 0000.0001)                 2.598919724358304E+05,      /* I =264 */
(PID.TID 0000.0001)                 2.693210245495156E+05,      /* I =265 */
(PID.TID 0000.0001)                 2.774243179696503E+05,      /* I =266 */
(PID.TID 0000.0001)                 2.842862532064524E+05,      /* I =267 */
(PID.TID 0000.0001)                 2.899590699694043E+05,      /* I =268 */
(PID.TID 0000.0001)                 2.944742915095688E+05,      /* I =269 */
(PID.TID 0000.0001)                 2.978501920522794E+05,      /* I =270 */
(PID.TID 0000.0001)                 3.000967749619962E+05,      /* I =271 */
(PID.TID 0000.0001)     2 @  3.012190981969055E+05,             /* I =272:273 */
(PID.TID 0000.0001)                 3.000967749619962E+05,      /* I =274 */
(PID.TID 0000.0001)                 2.978501920522794E+05,      /* I =275 */
(PID.TID 0000.0001)                 2.944742915095688E+05,      /* I =276 */
(PID.TID 0000.0001)                 2.899590699694043E+05,      /* I =277 */
(PID.TID 0000.0001)                 2.842862532064524E+05,      /* I =278 */
(PID.TID 0000.0001)                 2.774243179696503E+05,      /* I =279 */
(PID.TID 0000.0001)                 2.693210245495156E+05,      /* I =280 */
(PID.TID 0000.0001)                 2.598919724358304E+05,      /* I =281 */
(PID.TID 0000.0001)                 2.490022710862746E+05,      /* I =282 */
(PID.TID 0000.0001)                 2.364352994647058E+05,      /* I =283 */
(PID.TID 0000.0001)                 2.218350349844185E+05,      /* I =284 */
(PID.TID 0000.0001)                 2.045883481718707E+05,      /* I =285 */
(PID.TID 0000.0001)                 1.835530058121492E+05,      /* I =286 */
(PID.TID 0000.0001)                 1.563594089971120E+05,      /* I =287 */
(PID.TID 0000.0001)                 1.202082051331828E+05,      /* I =288 */
(PID.TID 0000.0001)                 2.220405216043041E+05,      /* I =289 */
(PID.TID 0000.0001)                 2.253995103830070E+05,      /* I =290 */
(PID.TID 0000.0001)                 2.314062085131702E+05,      /* I =291 */
(PID.TID 0000.0001)                 2.390627990003637E+05,      /* I =292 */
(PID.TID 0000.0001)                 2.474852428920030E+05,      /* I =293 */
(PID.TID 0000.0001)                 2.560456633895537E+05,      /* I =294 */
(PID.TID 0000.0001)                 2.643436975229842E+05,      /* I =295 */
(PID.TID 0000.0001)                 2.721339566565751E+05,      /* I =296 */
(PID.TID 0000.0001)                 2.792653032262129E+05,      /* I =297 */
(PID.TID 0000.0001)                 2.856413272949365E+05,      /* I =298 */
(PID.TID 0000.0001)                 2.911971973735105E+05,      /* I =299 */
(PID.TID 0000.0001)                 2.958868484465457E+05,      /* I =300 */
(PID.TID 0000.0001)                 2.996761960679202E+05,      /* I =301 */
(PID.TID 0000.0001)                 3.025397245330187E+05,      /* I =302 */
(PID.TID 0000.0001)                 3.044589008849406E+05,      /* I =303 */
(PID.TID 0000.0001)     2 @  3.054215712079756E+05,             /* I =304:305 */
(PID.TID 0000.0001)                 3.044589008849406E+05,      /* I =306 */
(PID.TID 0000.0001)                 3.025397245330187E+05,      /* I =307 */
(PID.TID 0000.0001)                 2.996761960679202E+05,      /* I =308 */
(PID.TID 0000.0001)                 2.958868484465457E+05,      /* I =309 */
(PID.TID 0000.0001)                 2.911971973735105E+05,      /* I =310 */
(PID.TID 0000.0001)                 2.856413272949365E+05,      /* I =311 */
(PID.TID 0000.0001)                 2.792653032262129E+05,      /* I =312 */
(PID.TID 0000.0001)                 2.721339566565751E+05,      /* I =313 */
(PID.TID 0000.0001)                 2.643436975229842E+05,      /* I =314 */
(PID.TID 0000.0001)                 2.560456633895537E+05,      /* I =315 */
(PID.TID 0000.0001)                 2.474852428920030E+05,      /* I =316 */
(PID.TID 0000.0001)                 2.390627990003637E+05,      /* I =317 */
(PID.TID 0000.0001)                 2.314062085131702E+05,      /* I =318 */
(PID.TID 0000.0001)                 2.253995103830070E+05,      /* I =319 */
(PID.TID 0000.0001)                 2.220405216043041E+05,      /* I =320 */
(PID.TID 0000.0001)                 2.694110134598581E+05,      /* I =321 */
(PID.TID 0000.0001)                 2.705231413075805E+05,      /* I =322 */
(PID.TID 0000.0001)                 2.726579649676481E+05,      /* I =323 */
(PID.TID 0000.0001)                 2.756548836326629E+05,      /* I =324 */
(PID.TID 0000.0001)                 2.793107344025355E+05,      /* I =325 */
(PID.TID 0000.0001)                 2.834083988863162E+05,      /* I =326 */
(PID.TID 0000.0001)                 2.877383482793128E+05,      /* I =327 */
(PID.TID 0000.0001)                 2.921111682925773E+05,      /* I =328 */
(PID.TID 0000.0001)                 2.963626409677758E+05,      /* I =329 */
(PID.TID 0000.0001)                 3.003541383476192E+05,      /* I =330 */
(PID.TID 0000.0001)                 3.039707489303444E+05,      /* I =331 */
(PID.TID 0000.0001)                 3.071187272280302E+05,      /* I =332 */
(PID.TID 0000.0001)                 3.097231021673243E+05,      /* I =333 */
(PID.TID 0000.0001)                 3.117257745272702E+05,      /* I =334 */
(PID.TID 0000.0001)                 3.130841559279307E+05,      /* I =335 */
(PID.TID 0000.0001)     2 @  3.137703202065625E+05,             /* I =336:337 */
(PID.TID 0000.0001)                 3.130841559279307E+05,      /* I =338 */
(PID.TID 0000.0001)                 3.117257745272702E+05,      /* I =339 */
(PID.TID 0000.0001)                 3.097231021673243E+05,      /* I =340 */
(PID.TID 0000.0001)                 3.071187272280302E+05,      /* I =341 */
(PID.TID 0000.0001)                 3.039707489303444E+05,      /* I =342 */
(PID.TID 0000.0001)                 3.003541383476192E+05,      /* I =343 */
(PID.TID 0000.0001)                 2.963626409677758E+05,      /* I =344 */
(PID.TID 0000.0001)                 2.921111682925773E+05,      /* I =345 */
(PID.TID 0000.0001)                 2.877383482793128E+05,      /* I =346 */
(PID.TID 0000.0001)                 2.834083988863162E+05,      /* I =347 */
(PID.TID 0000.0001)                 2.793107344025355E+05,      /* I =348 */
(PID.TID 0000.0001)                 2.756548836326629E+05,      /* I =349 */
(PID.TID 0000.0001)                 2.726579649676481E+05,      /* I =350 */
(PID.TID 0000.0001)                 2.705231413075805E+05,      /* I =351 */
(PID.TID 0000.0001)                 2.694110134598581E+05,      /* I =352 */
(PID.TID 0000.0001)                 2.945429307892709E+05,      /* I =353 */
(PID.TID 0000.0001)                 2.951012585576127E+05,      /* I =354 */
(PID.TID 0000.0001)                 2.961902079695312E+05,      /* I =355 */
(PID.TID 0000.0001)                 2.977567820180416E+05,      /* I =356 */
(PID.TID 0000.0001)                 2.997270416250828E+05,      /* I =357 */
(PID.TID 0000.0001)                 3.020116016720391E+05,      /* I =358 */
(PID.TID 0000.0001)                 3.045114407675102E+05,      /* I =359 */
(PID.TID 0000.0001)                 3.071233596908996E+05,      /* I =360 */
(PID.TID 0000.0001)                 3.097446928597904E+05,      /* I =361 */
(PID.TID 0000.0001)                 3.122771345611457E+05,      /* I =362 */
(PID.TID 0000.0001)                 3.146297218670249E+05,      /* I =363 */
(PID.TID 0000.0001)                 3.167211063730236E+05,      /* I =364 */
(PID.TID 0000.0001)                 3.184812669057048E+05,      /* I =365 */
(PID.TID 0000.0001)                 3.198527947158009E+05,      /* I =366 */
(PID.TID 0000.0001)                 3.207918466481293E+05,      /* I =367 */
(PID.TID 0000.0001)     2 @  3.212688630823077E+05,             /* I =368:369 */
(PID.TID 0000.0001)                 3.207918466481293E+05,      /* I =370 */
(PID.TID 0000.0001)                 3.198527947158009E+05,      /* I =371 */
(PID.TID 0000.0001)                 3.184812669057048E+05,      /* I =372 */
(PID.TID 0000.0001)                 3.167211063730236E+05,      /* I =373 */
(PID.TID 0000.0001)                 3.146297218670249E+05,      /* I =374 */
(PID.TID 0000.0001)                 3.122771345611457E+05,      /* I =375 */
(PID.TID 0000.0001)                 3.097446928597904E+05,      /* I =376 */
(PID.TID 0000.0001)                 3.071233596908996E+05,      /* I =377 */
(PID.TID 0000.0001)                 3.045114407675102E+05,      /* I =378 */
(PID.TID 0000.0001)                 3.020116016720391E+05,      /* I =379 */
(PID.TID 0000.0001)                 2.997270416250828E+05,      /* I =380 */
(PID.TID 0000.0001)                 2.977567820180416E+05,      /* I =381 */
(PID.TID 0000.0001)                 2.961902079695312E+05,      /* I =382 */
(PID.TID 0000.0001)                 2.951012585576127E+05,      /* I =383 */
(PID.TID 0000.0001)                 2.945429307892709E+05,      /* I =384 */
(PID.TID 0000.0001)                 3.012844832048790E+05,      /* I =385 */
(PID.TID 0000.0001)                 3.017314519159184E+05,      /* I =386 */
(PID.TID 0000.0001)                 3.026061571839506E+05,      /* I =387 */
(PID.TID 0000.0001)                 3.038712499122208E+05,      /* I =388 */
(PID.TID 0000.0001)                 3.054733694195115E+05,      /* I =389 */
(PID.TID 0000.0001)                 3.073460170047538E+05,      /* I =390 */
(PID.TID 0000.0001)                 3.094129252024922E+05,      /* I =391 */
(PID.TID 0000.0001)                 3.115916488673079E+05,      /* I =392 */
(PID.TID 0000.0001)                 3.137971415338805E+05,      /* I =393 */
(PID.TID 0000.0001)                 3.159451387866950E+05,      /* I =394 */
(PID.TID 0000.0001)                 3.179552321069062E+05,      /* I =395 */
(PID.TID 0000.0001)                 3.197535693737994E+05,      /* I =396 */
(PID.TID 0000.0001)                 3.212751560265627E+05,      /* I =397 */
(PID.TID 0000.0001)                 3.224657535572011E+05,      /* I =398 */
(PID.TID 0000.0001)                 3.232833825614068E+05,      /* I =399 */
(PID.TID 0000.0001)     2 @  3.236994750082736E+05,             /* I =400:401 */
(PID.TID 0000.0001)                 3.232833825614068E+05,      /* I =402 */
(PID.TID 0000.0001)                 3.224657535572011E+05,      /* I =403 */
(PID.TID 0000.0001)                 3.212751560265627E+05,      /* I =404 */
(PID.TID 0000.0001)                 3.197535693737994E+05,      /* I =405 */
(PID.TID 0000.0001)                 3.179552321069062E+05,      /* I =406 */
(PID.TID 0000.0001)                 3.159451387866950E+05,      /* I =407 */
(PID.TID 0000.0001)                 3.137971415338805E+05,      /* I =408 */
(PID.TID 0000.0001)                 3.115916488673079E+05,      /* I =409 */
(PID.TID 0000.0001)                 3.094129252024922E+05,      /* I =410 */
(PID.TID 0000.0001)                 3.073460170047538E+05,      /* I =411 */
(PID.TID 0000.0001)                 3.054733694195115E+05,      /* I =412 */
(PID.TID 0000.0001)                 3.038712499122208E+05,      /* I =413 */
(PID.TID 0000.0001)                 3.026061571839506E+05,      /* I =414 */
(PID.TID 0000.0001)                 3.017314519159184E+05,      /* I =415 */
(PID.TID 0000.0001)                 3.012844832048790E+05,      /* I =416 */
(PID.TID 0000.0001)                 2.900303768613599E+05,      /* I =417 */
(PID.TID 0000.0001)                 2.906706565369413E+05,      /* I =418 */
(PID.TID 0000.0001)                 2.919164736866363E+05,      /* I =419 */
(PID.TID 0000.0001)                 2.937020375736682E+05,      /* I =420 */
(PID.TID 0000.0001)                 2.959369960765984E+05,      /* I =421 */
(PID.TID 0000.0001)                 2.985143016243727E+05,      /* I =422 */
(PID.TID 0000.0001)                 3.013180578167061E+05,      /* I =423 */
(PID.TID 0000.0001)                 3.042303595100670E+05,      /* I =424 */
(PID.TID 0000.0001)                 3.071366753786757E+05,      /* I =425 */
(PID.TID 0000.0001)                 3.099297624247245E+05,      /* I =426 */
(PID.TID 0000.0001)                 3.125123546816480E+05,      /* I =427 */
(PID.TID 0000.0001)                 3.147989491998900E+05,      /* I =428 */
(PID.TID 0000.0001)                 3.167169842566044E+05,      /* I =429 */
(PID.TID 0000.0001)                 3.182076300546702E+05,      /* I =430 */
(PID.TID 0000.0001)                 3.192263328390683E+05,      /* I =431 */
(PID.TID 0000.0001)     2 @  3.197432274745630E+05,             /* I =432:433 */
(PID.TID 0000.0001)                 3.192263328390683E+05,      /* I =434 */
(PID.TID 0000.0001)                 3.182076300546702E+05,      /* I =435 */
(PID.TID 0000.0001)                 3.167169842566044E+05,      /* I =436 */
(PID.TID 0000.0001)                 3.147989491998900E+05,      /* I =437 */
(PID.TID 0000.0001)                 3.125123546816480E+05,      /* I =438 */
(PID.TID 0000.0001)                 3.099297624247245E+05,      /* I =439 */
(PID.TID 0000.0001)                 3.071366753786757E+05,      /* I =440 */
(PID.TID 0000.0001)                 3.042303595100670E+05,      /* I =441 */
(PID.TID 0000.0001)                 3.013180578167061E+05,      /* I =442 */
(PID.TID 0000.0001)                 2.985143016243727E+05,      /* I =443 */
(PID.TID 0000.0001)                 2.959369960765984E+05,      /* I =444 */
(PID.TID 0000.0001)                 2.937020375736682E+05,      /* I =445 */
(PID.TID 0000.0001)                 2.919164736866363E+05,      /* I =446 */
(PID.TID 0000.0001)                 2.906706565369413E+05,      /* I =447 */
(PID.TID 0000.0001)                 2.900303768613599E+05,      /* I =448 */
(PID.TID 0000.0001)                 2.599949918261881E+05,      /* I =449 */
(PID.TID 0000.0001)                 2.613928019944271E+05,      /* I =450 */
(PID.TID 0000.0001)                 2.640534701478141E+05,      /* I =451 */
(PID.TID 0000.0001)                 2.677421336598871E+05,      /* I =452 */
(PID.TID 0000.0001)                 2.721754665816094E+05,      /* I =453 */
(PID.TID 0000.0001)                 2.770677082849345E+05,      /* I =454 */
(PID.TID 0000.0001)                 2.821597581064359E+05,      /* I =455 */
(PID.TID 0000.0001)                 2.872314003732699E+05,      /* I =456 */
(PID.TID 0000.0001)                 2.921023023566398E+05,      /* I =457 */
(PID.TID 0000.0001)                 2.966276260863712E+05,      /* I =458 */
(PID.TID 0000.0001)                 3.006921489793282E+05,      /* I =459 */
(PID.TID 0000.0001)                 3.042048495507529E+05,      /* I =460 */
(PID.TID 0000.0001)                 3.070946554358933E+05,      /* I =461 */
(PID.TID 0000.0001)                 3.093074100109176E+05,      /* I =462 */
(PID.TID 0000.0001)                 3.108038593575396E+05,      /* I =463 */
(PID.TID 0000.0001)     2 @  3.115584474900804E+05,             /* I =464:465 */
(PID.TID 0000.0001)                 3.108038593575396E+05,      /* I =466 */
(PID.TID 0000.0001)                 3.093074100109176E+05,      /* I =467 */
(PID.TID 0000.0001)                 3.070946554358933E+05,      /* I =468 */
(PID.TID 0000.0001)                 3.042048495507529E+05,      /* I =469 */
(PID.TID 0000.0001)                 3.006921489793282E+05,      /* I =470 */
(PID.TID 0000.0001)                 2.966276260863712E+05,      /* I =471 */
(PID.TID 0000.0001)                 2.921023023566398E+05,      /* I =472 */
(PID.TID 0000.0001)                 2.872314003732699E+05,      /* I =473 */
(PID.TID 0000.0001)                 2.821597581064359E+05,      /* I =474 */
(PID.TID 0000.0001)                 2.770677082849345E+05,      /* I =475 */
(PID.TID 0000.0001)                 2.721754665816094E+05,      /* I =476 */
(PID.TID 0000.0001)                 2.677421336598871E+05,      /* I =477 */
(PID.TID 0000.0001)                 2.640534701478141E+05,      /* I =478 */
(PID.TID 0000.0001)                 2.613928019944271E+05,      /* I =479 */
(PID.TID 0000.0001)                 2.599949918261881E+05,      /* I =480 */
(PID.TID 0000.0001)                 2.048868197919576E+05,      /* I =481 */
(PID.TID 0000.0001)                 2.098871716285330E+05,      /* I =482 */
(PID.TID 0000.0001)                 2.183552757714993E+05,      /* I =483 */
(PID.TID 0000.0001)                 2.284883157115105E+05,      /* I =484 */
(PID.TID 0000.0001)                 2.390259833947229E+05,      /* I =485 */
(PID.TID 0000.0001)                 2.492723940965486E+05,      /* I =486 */
(PID.TID 0000.0001)                 2.588804175347912E+05,      /* I =487 */
(PID.TID 0000.0001)                 2.676821762100863E+05,      /* I =488 */
(PID.TID 0000.0001)                 2.755951392607118E+05,      /* I =489 */
(PID.TID 0000.0001)                 2.825758551959615E+05,      /* I =490 */
(PID.TID 0000.0001)                 2.885983146955540E+05,      /* I =491 */
(PID.TID 0000.0001)                 2.936442966455010E+05,      /* I =492 */
(PID.TID 0000.0001)                 2.976994255899062E+05,      /* I =493 */
(PID.TID 0000.0001)                 3.007518957476707E+05,      /* I =494 */
(PID.TID 0000.0001)                 3.027923688443646E+05,      /* I =495 */
(PID.TID 0000.0001)     2 @  3.038143430929827E+05,             /* I =496:497 */
(PID.TID 0000.0001)                 3.027923688443646E+05,      /* I =498 */
(PID.TID 0000.0001)                 3.007518957476707E+05,      /* I =499 */
(PID.TID 0000.0001)                 2.976994255899062E+05,      /* I =500 */
(PID.TID 0000.0001)                 2.936442966455010E+05,      /* I =501 */
(PID.TID 0000.0001)                 2.885983146955540E+05,      /* I =502 */
(PID.TID 0000.0001)                 2.825758551959615E+05,      /* I =503 */
(PID.TID 0000.0001)                 2.755951392607118E+05,      /* I =504 */
(PID.TID 0000.0001)                 2.676821762100863E+05,      /* I =505 */
(PID.TID 0000.0001)                 2.588804175347912E+05,      /* I =506 */
(PID.TID 0000.0001)                 2.492723940965486E+05,      /* I =507 */
(PID.TID 0000.0001)                 2.390259833947229E+05,      /* I =508 */
(PID.TID 0000.0001)                 2.284883157115105E+05,      /* I =509 */
(PID.TID 0000.0001)                 2.183552757714993E+05,      /* I =510 */
(PID.TID 0000.0001)                 2.098871716285330E+05,      /* I =511 */
(PID.TID 0000.0001)                 2.048868197919576E+05,      /* I =512 */
(PID.TID 0000.0001)                 1.202082051331828E+05,      /* I =513 */
(PID.TID 0000.0001)                 1.563594089971120E+05,      /* I =514 */
(PID.TID 0000.0001)                 1.835530058121492E+05,      /* I =515 */
(PID.TID 0000.0001)                 2.045883481718707E+05,      /* I =516 */
(PID.TID 0000.0001)                 2.218350349844185E+05,      /* I =517 */
(PID.TID 0000.0001)                 2.364352994647058E+05,      /* I =518 */
(PID.TID 0000.0001)                 2.490022710862746E+05,      /* I =519 */
(PID.TID 0000.0001)                 2.598919724358304E+05,      /* I =520 */
(PID.TID 0000.0001)                 2.693210245495156E+05,      /* I =521 */
(PID.TID 0000.0001)                 2.774243179696503E+05,      /* I =522 */
(PID.TID 0000.0001)                 2.842862532064524E+05,      /* I =523 */
(PID.TID 0000.0001)                 2.899590699694043E+05,      /* I =524 */
(PID.TID 0000.0001)                 2.944742915095688E+05,      /* I =525 */
(PID.TID 0000.0001)                 2.978501920522794E+05,      /* I =526 */
(PID.TID 0000.0001)                 3.000967749619962E+05,      /* I =527 */
(PID.TID 0000.0001)     2 @  3.012190981969055E+05,             /* I =528:529 */
(PID.TID 0000.0001)                 3.000967749619962E+05,      /* I =530 */
(PID.TID 0000.0001)                 2.978501920522794E+05,      /* I =531 */
(PID.TID 0000.0001)                 2.944742915095688E+05,      /* I =532 */
(PID.TID 0000.0001)                 2.899590699694043E+05,      /* I =533 */
(PID.TID 0000.0001)                 2.842862532064524E+05,      /* I =534 */
(PID.TID 0000.0001)                 2.774243179696503E+05,      /* I =535 */
(PID.TID 0000.0001)                 2.693210245495156E+05,      /* I =536 */
(PID.TID 0000.0001)                 2.598919724358304E+05,      /* I =537 */
(PID.TID 0000.0001)                 2.490022710862746E+05,      /* I =538 */
(PID.TID 0000.0001)                 2.364352994647058E+05,      /* I =539 */
(PID.TID 0000.0001)                 2.218350349844185E+05,      /* I =540 */
(PID.TID 0000.0001)                 2.045883481718707E+05,      /* I =541 */
(PID.TID 0000.0001)                 1.835530058121492E+05,      /* I =542 */
(PID.TID 0000.0001)                 1.563594089971120E+05,      /* I =543 */
(PID.TID 0000.0001)                 1.202082051331828E+05,      /* I =544 */
(PID.TID 0000.0001)                 2.220405216043041E+05,      /* I =545 */
(PID.TID 0000.0001)                 2.253995103830070E+05,      /* I =546 */
(PID.TID 0000.0001)                 2.314062085131702E+05,      /* I =547 */
(PID.TID 0000.0001)                 2.390627990003637E+05,      /* I =548 */
(PID.TID 0000.0001)                 2.474852428920030E+05,      /* I =549 */
(PID.TID 0000.0001)                 2.560456633895537E+05,      /* I =550 */
(PID.TID 0000.0001)                 2.643436975229842E+05,      /* I =551 */
(PID.TID 0000.0001)                 2.721339566565751E+05,      /* I =552 */
(PID.TID 0000.0001)                 2.792653032262129E+05,      /* I =553 */
(PID.TID 0000.0001)                 2.856413272949365E+05,      /* I =554 */
(PID.TID 0000.0001)                 2.911971973735105E+05,      /* I =555 */
(PID.TID 0000.0001)                 2.958868484465457E+05,      /* I =556 */
(PID.TID 0000.0001)                 2.996761960679202E+05,      /* I =557 */
(PID.TID 0000.0001)                 3.025397245330187E+05,      /* I =558 */
(PID.TID 0000.0001)                 3.044589008849406E+05,      /* I =559 */
(PID.TID 0000.0001)     2 @  3.054215712079756E+05,             /* I =560:561 */
(PID.TID 0000.0001)                 3.044589008849406E+05,      /* I =562 */
(PID.TID 0000.0001)                 3.025397245330187E+05,      /* I =563 */
(PID.TID 0000.0001)                 2.996761960679202E+05,      /* I =564 */
(PID.TID 0000.0001)                 2.958868484465457E+05,      /* I =565 */
(PID.TID 0000.0001)                 2.911971973735105E+05,      /* I =566 */
(PID.TID 0000.0001)                 2.856413272949365E+05,      /* I =567 */
(PID.TID 0000.0001)                 2.792653032262129E+05,      /* I =568 */
(PID.TID 0000.0001)                 2.721339566565751E+05,      /* I =569 */
(PID.TID 0000.0001)                 2.643436975229842E+05,      /* I =570 */
(PID.TID 0000.0001)                 2.560456633895537E+05,      /* I =571 */
(PID.TID 0000.0001)                 2.474852428920030E+05,      /* I =572 */
(PID.TID 0000.0001)                 2.390627990003637E+05,      /* I =573 */
(PID.TID 0000.0001)                 2.314062085131702E+05,      /* I =574 */
(PID.TID 0000.0001)                 2.253995103830070E+05,      /* I =575 */
(PID.TID 0000.0001)                 2.220405216043041E+05,      /* I =576 */
(PID.TID 0000.0001)                 2.694110134598581E+05,      /* I =577 */
(PID.TID 0000.0001)                 2.705231413075805E+05,      /* I =578 */
(PID.TID 0000.0001)                 2.726579649676481E+05,      /* I =579 */
(PID.TID 0000.0001)                 2.756548836326629E+05,      /* I =580 */
(PID.TID 0000.0001)                 2.793107344025355E+05,      /* I =581 */
(PID.TID 0000.0001)                 2.834083988863162E+05,      /* I =582 */
(PID.TID 0000.0001)                 2.877383482793128E+05,      /* I =583 */
(PID.TID 0000.0001)                 2.921111682925773E+05,      /* I =584 */
(PID.TID 0000.0001)                 2.963626409677758E+05,      /* I =585 */
(PID.TID 0000.0001)                 3.003541383476192E+05,      /* I =586 */
(PID.TID 0000.0001)                 3.039707489303444E+05,      /* I =587 */
(PID.TID 0000.0001)                 3.071187272280302E+05,      /* I =588 */
(PID.TID 0000.0001)                 3.097231021673243E+05,      /* I =589 */
(PID.TID 0000.0001)                 3.117257745272702E+05,      /* I =590 */
(PID.TID 0000.0001)                 3.130841559279307E+05,      /* I =591 */
(PID.TID 0000.0001)     2 @  3.137703202065625E+05,             /* I =592:593 */
(PID.TID 0000.0001)                 3.130841559279307E+05,      /* I =594 */
(PID.TID 0000.0001)                 3.117257745272702E+05,      /* I =595 */
(PID.TID 0000.0001)                 3.097231021673243E+05,      /* I =596 */
(PID.TID 0000.0001)                 3.071187272280302E+05,      /* I =597 */
(PID.TID 0000.0001)                 3.039707489303444E+05,      /* I =598 */
(PID.TID 0000.0001)                 3.003541383476192E+05,      /* I =599 */
(PID.TID 0000.0001)                 2.963626409677758E+05,      /* I =600 */
(PID.TID 0000.0001)                 2.921111682925773E+05,      /* I =601 */
(PID.TID 0000.0001)                 2.877383482793128E+05,      /* I =602 */
(PID.TID 0000.0001)                 2.834083988863162E+05,      /* I =603 */
(PID.TID 0000.0001)                 2.793107344025355E+05,      /* I =604 */
(PID.TID 0000.0001)                 2.756548836326629E+05,      /* I =605 */
(PID.TID 0000.0001)                 2.726579649676481E+05,      /* I =606 */
(PID.TID 0000.0001)                 2.705231413075805E+05,      /* I =607 */
(PID.TID 0000.0001)                 2.694110134598581E+05,      /* I =608 */
(PID.TID 0000.0001)                 2.945429307892709E+05,      /* I =609 */
(PID.TID 0000.0001)                 2.951012585576127E+05,      /* I =610 */
(PID.TID 0000.0001)                 2.961902079695312E+05,      /* I =611 */
(PID.TID 0000.0001)                 2.977567820180416E+05,      /* I =612 */
(PID.TID 0000.0001)                 2.997270416250828E+05,      /* I =613 */
(PID.TID 0000.0001)                 3.020116016720391E+05,      /* I =614 */
(PID.TID 0000.0001)                 3.045114407675102E+05,      /* I =615 */
(PID.TID 0000.0001)                 3.071233596908996E+05,      /* I =616 */
(PID.TID 0000.0001)                 3.097446928597904E+05,      /* I =617 */
(PID.TID 0000.0001)                 3.122771345611457E+05,      /* I =618 */
(PID.TID 0000.0001)                 3.146297218670249E+05,      /* I =619 */
(PID.TID 0000.0001)                 3.167211063730236E+05,      /* I =620 */
(PID.TID 0000.0001)                 3.184812669057048E+05,      /* I =621 */
(PID.TID 0000.0001)                 3.198527947158009E+05,      /* I =622 */
(PID.TID 0000.0001)                 3.207918466481293E+05,      /* I =623 */
(PID.TID 0000.0001)     2 @  3.212688630823077E+05,             /* I =624:625 */
(PID.TID 0000.0001)                 3.207918466481293E+05,      /* I =626 */
(PID.TID 0000.0001)                 3.198527947158009E+05,      /* I =627 */
(PID.TID 0000.0001)                 3.184812669057048E+05,      /* I =628 */
(PID.TID 0000.0001)                 3.167211063730236E+05,      /* I =629 */
(PID.TID 0000.0001)                 3.146297218670249E+05,      /* I =630 */
(PID.TID 0000.0001)                 3.122771345611457E+05,      /* I =631 */
(PID.TID 0000.0001)                 3.097446928597904E+05,      /* I =632 */
(PID.TID 0000.0001)                 3.071233596908996E+05,      /* I =633 */
(PID.TID 0000.0001)                 3.045114407675102E+05,      /* I =634 */
(PID.TID 0000.0001)                 3.020116016720391E+05,      /* I =635 */
(PID.TID 0000.0001)                 2.997270416250828E+05,      /* I =636 */
(PID.TID 0000.0001)                 2.977567820180416E+05,      /* I =637 */
(PID.TID 0000.0001)                 2.961902079695312E+05,      /* I =638 */
(PID.TID 0000.0001)                 2.951012585576127E+05,      /* I =639 */
(PID.TID 0000.0001)                 2.945429307892709E+05,      /* I =640 */
(PID.TID 0000.0001)                 3.012844832048790E+05,      /* I =641 */
(PID.TID 0000.0001)                 3.017314519159184E+05,      /* I =642 */
(PID.TID 0000.0001)                 3.026061571839506E+05,      /* I =643 */
(PID.TID 0000.0001)                 3.038712499122208E+05,      /* I =644 */
(PID.TID 0000.0001)                 3.054733694195115E+05,      /* I =645 */
(PID.TID 0000.0001)                 3.073460170047538E+05,      /* I =646 */
(PID.TID 0000.0001)                 3.094129252024922E+05,      /* I =647 */
(PID.TID 0000.0001)                 3.115916488673079E+05,      /* I =648 */
(PID.TID 0000.0001)                 3.137971415338805E+05,      /* I =649 */
(PID.TID 0000.0001)                 3.159451387866950E+05,      /* I =650 */
(PID.TID 0000.0001)                 3.179552321069062E+05,      /* I =651 */
(PID.TID 0000.0001)                 3.197535693737994E+05,      /* I =652 */
(PID.TID 0000.0001)                 3.212751560265627E+05,      /* I =653 */
(PID.TID 0000.0001)                 3.224657535572011E+05,      /* I =654 */
(PID.TID 0000.0001)                 3.232833825614068E+05,      /* I =655 */
(PID.TID 0000.0001)     2 @  3.236994750082736E+05,             /* I =656:657 */
(PID.TID 0000.0001)                 3.232833825614068E+05,      /* I =658 */
(PID.TID 0000.0001)                 3.224657535572011E+05,      /* I =659 */
(PID.TID 0000.0001)                 3.212751560265627E+05,      /* I =660 */
(PID.TID 0000.0001)                 3.197535693737994E+05,      /* I =661 */
(PID.TID 0000.0001)                 3.179552321069062E+05,      /* I =662 */
(PID.TID 0000.0001)                 3.159451387866950E+05,      /* I =663 */
(PID.TID 0000.0001)                 3.137971415338805E+05,      /* I =664 */
(PID.TID 0000.0001)                 3.115916488673079E+05,      /* I =665 */
(PID.TID 0000.0001)                 3.094129252024922E+05,      /* I =666 */
(PID.TID 0000.0001)                 3.073460170047538E+05,      /* I =667 */
(PID.TID 0000.0001)                 3.054733694195115E+05,      /* I =668 */
(PID.TID 0000.0001)                 3.038712499122208E+05,      /* I =669 */
(PID.TID 0000.0001)                 3.026061571839506E+05,      /* I =670 */
(PID.TID 0000.0001)                 3.017314519159184E+05,      /* I =671 */
(PID.TID 0000.0001)                 3.012844832048790E+05,      /* I =672 */
(PID.TID 0000.0001)                 2.900303768613599E+05,      /* I =673 */
(PID.TID 0000.0001)                 2.906706565369413E+05,      /* I =674 */
(PID.TID 0000.0001)                 2.919164736866363E+05,      /* I =675 */
(PID.TID 0000.0001)                 2.937020375736682E+05,      /* I =676 */
(PID.TID 0000.0001)                 2.959369960765984E+05,      /* I =677 */
(PID.TID 0000.0001)                 2.985143016243727E+05,      /* I =678 */
(PID.TID 0000.0001)                 3.013180578167061E+05,      /* I =679 */
(PID.TID 0000.0001)                 3.042303595100670E+05,      /* I =680 */
(PID.TID 0000.0001)                 3.071366753786757E+05,      /* I =681 */
(PID.TID 0000.0001)                 3.099297624247245E+05,      /* I =682 */
(PID.TID 0000.0001)                 3.125123546816480E+05,      /* I =683 */
(PID.TID 0000.0001)                 3.147989491998900E+05,      /* I =684 */
(PID.TID 0000.0001)                 3.167169842566044E+05,      /* I =685 */
(PID.TID 0000.0001)                 3.182076300546702E+05,      /* I =686 */
(PID.TID 0000.0001)                 3.192263328390683E+05,      /* I =687 */
(PID.TID 0000.0001)     2 @  3.197432274745630E+05,             /* I =688:689 */
(PID.TID 0000.0001)                 3.192263328390683E+05,      /* I =690 */
(PID.TID 0000.0001)                 3.182076300546702E+05,      /* I =691 */
(PID.TID 0000.0001)                 3.167169842566044E+05,      /* I =692 */
(PID.TID 0000.0001)                 3.147989491998900E+05,      /* I =693 */
(PID.TID 0000.0001)                 3.125123546816480E+05,      /* I =694 */
(PID.TID 0000.0001)                 3.099297624247245E+05,      /* I =695 */
(PID.TID 0000.0001)                 3.071366753786757E+05,      /* I =696 */
(PID.TID 0000.0001)                 3.042303595100670E+05,      /* I =697 */
(PID.TID 0000.0001)                 3.013180578167061E+05,      /* I =698 */
(PID.TID 0000.0001)                 2.985143016243727E+05,      /* I =699 */
(PID.TID 0000.0001)                 2.959369960765984E+05,      /* I =700 */
(PID.TID 0000.0001)                 2.937020375736682E+05,      /* I =701 */
(PID.TID 0000.0001)                 2.919164736866363E+05,      /* I =702 */
(PID.TID 0000.0001)                 2.906706565369413E+05,      /* I =703 */
(PID.TID 0000.0001)                 2.900303768613599E+05,      /* I =704 */
(PID.TID 0000.0001)                 2.599949918261881E+05,      /* I =705 */
(PID.TID 0000.0001)                 2.613928019944271E+05,      /* I =706 */
(PID.TID 0000.0001)                 2.640534701478141E+05,      /* I =707 */
(PID.TID 0000.0001)                 2.677421336598871E+05,      /* I =708 */
(PID.TID 0000.0001)                 2.721754665816094E+05,      /* I =709 */
(PID.TID 0000.0001)                 2.770677082849345E+05,      /* I =710 */
(PID.TID 0000.0001)                 2.821597581064359E+05,      /* I =711 */
(PID.TID 0000.0001)                 2.872314003732699E+05,      /* I =712 */
(PID.TID 0000.0001)                 2.921023023566398E+05,      /* I =713 */
(PID.TID 0000.0001)                 2.966276260863712E+05,      /* I =714 */
(PID.TID 0000.0001)                 3.006921489793282E+05,      /* I =715 */
(PID.TID 0000.0001)                 3.042048495507529E+05,      /* I =716 */
(PID.TID 0000.0001)                 3.070946554358933E+05,      /* I =717 */
(PID.TID 0000.0001)                 3.093074100109176E+05,      /* I =718 */
(PID.TID 0000.0001)                 3.108038593575396E+05,      /* I =719 */
(PID.TID 0000.0001)     2 @  3.115584474900804E+05,             /* I =720:721 */
(PID.TID 0000.0001)                 3.108038593575396E+05,      /* I =722 */
(PID.TID 0000.0001)                 3.093074100109176E+05,      /* I =723 */
(PID.TID 0000.0001)                 3.070946554358933E+05,      /* I =724 */
(PID.TID 0000.0001)                 3.042048495507529E+05,      /* I =725 */
(PID.TID 0000.0001)                 3.006921489793282E+05,      /* I =726 */
(PID.TID 0000.0001)                 2.966276260863712E+05,      /* I =727 */
(PID.TID 0000.0001)                 2.921023023566398E+05,      /* I =728 */
(PID.TID 0000.0001)                 2.872314003732699E+05,      /* I =729 */
(PID.TID 0000.0001)                 2.821597581064359E+05,      /* I =730 */
(PID.TID 0000.0001)                 2.770677082849345E+05,      /* I =731 */
(PID.TID 0000.0001)                 2.721754665816094E+05,      /* I =732 */
(PID.TID 0000.0001)                 2.677421336598871E+05,      /* I =733 */
(PID.TID 0000.0001)                 2.640534701478141E+05,      /* I =734 */
(PID.TID 0000.0001)                 2.613928019944271E+05,      /* I =735 */
(PID.TID 0000.0001)                 2.599949918261881E+05,      /* I =736 */
(PID.TID 0000.0001)                 2.048868197919576E+05,      /* I =737 */
(PID.TID 0000.0001)                 2.098871716285330E+05,      /* I =738 */
(PID.TID 0000.0001)                 2.183552757714993E+05,      /* I =739 */
(PID.TID 0000.0001)                 2.284883157115105E+05,      /* I =740 */
(PID.TID 0000.0001)                 2.390259833947229E+05,      /* I =741 */
(PID.TID 0000.0001)                 2.492723940965486E+05,      /* I =742 */
(PID.TID 0000.0001)                 2.588804175347912E+05,      /* I =743 */
(PID.TID 0000.0001)                 2.676821762100863E+05,      /* I =744 */
(PID.TID 0000.0001)                 2.755951392607118E+05,      /* I =745 */
(PID.TID 0000.0001)                 2.825758551959615E+05,      /* I =746 */
(PID.TID 0000.0001)                 2.885983146955540E+05,      /* I =747 */
(PID.TID 0000.0001)                 2.936442966455010E+05,      /* I =748 */
(PID.TID 0000.0001)                 2.976994255899062E+05,      /* I =749 */
(PID.TID 0000.0001)                 3.007518957476707E+05,      /* I =750 */
(PID.TID 0000.0001)                 3.027923688443646E+05,      /* I =751 */
(PID.TID 0000.0001)     2 @  3.038143430929827E+05,             /* I =752:753 */
(PID.TID 0000.0001)                 3.027923688443646E+05,      /* I =754 */
(PID.TID 0000.0001)                 3.007518957476707E+05,      /* I =755 */
(PID.TID 0000.0001)                 2.976994255899062E+05,      /* I =756 */
(PID.TID 0000.0001)                 2.936442966455010E+05,      /* I =757 */
(PID.TID 0000.0001)                 2.885983146955540E+05,      /* I =758 */
(PID.TID 0000.0001)                 2.825758551959615E+05,      /* I =759 */
(PID.TID 0000.0001)                 2.755951392607118E+05,      /* I =760 */
(PID.TID 0000.0001)                 2.676821762100863E+05,      /* I =761 */
(PID.TID 0000.0001)                 2.588804175347912E+05,      /* I =762 */
(PID.TID 0000.0001)                 2.492723940965486E+05,      /* I =763 */
(PID.TID 0000.0001)                 2.390259833947229E+05,      /* I =764 */
(PID.TID 0000.0001)                 2.284883157115105E+05,      /* I =765 */
(PID.TID 0000.0001)                 2.183552757714993E+05,      /* I =766 */
(PID.TID 0000.0001)                 2.098871716285330E+05,      /* I =767 */
(PID.TID 0000.0001)                 2.048868197919576E+05,      /* I =768 */
(PID.TID 0000.0001)                 1.202082051331828E+05,      /* I =769 */
(PID.TID 0000.0001)                 1.563594089971120E+05,      /* I =770 */
(PID.TID 0000.0001)                 1.835530058121492E+05,      /* I =771 */
(PID.TID 0000.0001)                 2.045883481718707E+05,      /* I =772 */
(PID.TID 0000.0001)                 2.218350349844185E+05,      /* I =773 */
(PID.TID 0000.0001)                 2.364352994647058E+05,      /* I =774 */
(PID.TID 0000.0001)                 2.490022710862746E+05,      /* I =775 */
(PID.TID 0000.0001)                 2.598919724358304E+05,      /* I =776 */
(PID.TID 0000.0001)                 2.693210245495156E+05,      /* I =777 */
(PID.TID 0000.0001)                 2.774243179696503E+05,      /* I =778 */
(PID.TID 0000.0001)                 2.842862532064524E+05,      /* I =779 */
(PID.TID 0000.0001)                 2.899590699694043E+05,      /* I =780 */
(PID.TID 0000.0001)                 2.944742915095688E+05,      /* I =781 */
(PID.TID 0000.0001)                 2.978501920522794E+05,      /* I =782 */
(PID.TID 0000.0001)                 3.000967749619962E+05,      /* I =783 */
(PID.TID 0000.0001)     2 @  3.012190981969055E+05,             /* I =784:785 */
(PID.TID 0000.0001)                 3.000967749619962E+05,      /* I =786 */
(PID.TID 0000.0001)                 2.978501920522794E+05,      /* I =787 */
(PID.TID 0000.0001)                 2.944742915095688E+05,      /* I =788 */
(PID.TID 0000.0001)                 2.899590699694043E+05,      /* I =789 */
(PID.TID 0000.0001)                 2.842862532064524E+05,      /* I =790 */
(PID.TID 0000.0001)                 2.774243179696503E+05,      /* I =791 */
(PID.TID 0000.0001)                 2.693210245495156E+05,      /* I =792 */
(PID.TID 0000.0001)                 2.598919724358304E+05,      /* I =793 */
(PID.TID 0000.0001)                 2.490022710862746E+05,      /* I =794 */
(PID.TID 0000.0001)                 2.364352994647058E+05,      /* I =795 */
(PID.TID 0000.0001)                 2.218350349844185E+05,      /* I =796 */
(PID.TID 0000.0001)                 2.045883481718707E+05,      /* I =797 */
(PID.TID 0000.0001)                 1.835530058121492E+05,      /* I =798 */
(PID.TID 0000.0001)                 1.563594089971120E+05,      /* I =799 */
(PID.TID 0000.0001)                 1.202082051331828E+05,      /* I =800 */
(PID.TID 0000.0001)                 2.220405216043041E+05,      /* I =801 */
(PID.TID 0000.0001)                 2.253995103830070E+05,      /* I =802 */
(PID.TID 0000.0001)                 2.314062085131702E+05,      /* I =803 */
(PID.TID 0000.0001)                 2.390627990003637E+05,      /* I =804 */
(PID.TID 0000.0001)                 2.474852428920030E+05,      /* I =805 */
(PID.TID 0000.0001)                 2.560456633895537E+05,      /* I =806 */
(PID.TID 0000.0001)                 2.643436975229842E+05,      /* I =807 */
(PID.TID 0000.0001)                 2.721339566565751E+05,      /* I =808 */
(PID.TID 0000.0001)                 2.792653032262129E+05,      /* I =809 */
(PID.TID 0000.0001)                 2.856413272949365E+05,      /* I =810 */
(PID.TID 0000.0001)                 2.911971973735105E+05,      /* I =811 */
(PID.TID 0000.0001)                 2.958868484465457E+05,      /* I =812 */
(PID.TID 0000.0001)                 2.996761960679202E+05,      /* I =813 */
(PID.TID 0000.0001)                 3.025397245330187E+05,      /* I =814 */
(PID.TID 0000.0001)                 3.044589008849406E+05,      /* I =815 */
(PID.TID 0000.0001)     2 @  3.054215712079756E+05,             /* I =816:817 */
(PID.TID 0000.0001)                 3.044589008849406E+05,      /* I =818 */
(PID.TID 0000.0001)                 3.025397245330187E+05,      /* I =819 */
(PID.TID 0000.0001)                 2.996761960679202E+05,      /* I =820 */
(PID.TID 0000.0001)                 2.958868484465457E+05,      /* I =821 */
(PID.TID 0000.0001)                 2.911971973735105E+05,      /* I =822 */
(PID.TID 0000.0001)                 2.856413272949365E+05,      /* I =823 */
(PID.TID 0000.0001)                 2.792653032262129E+05,      /* I =824 */
(PID.TID 0000.0001)                 2.721339566565751E+05,      /* I =825 */
(PID.TID 0000.0001)                 2.643436975229842E+05,      /* I =826 */
(PID.TID 0000.0001)                 2.560456633895537E+05,      /* I =827 */
(PID.TID 0000.0001)                 2.474852428920030E+05,      /* I =828 */
(PID.TID 0000.0001)                 2.390627990003637E+05,      /* I =829 */
(PID.TID 0000.0001)                 2.314062085131702E+05,      /* I =830 */
(PID.TID 0000.0001)                 2.253995103830070E+05,      /* I =831 */
(PID.TID 0000.0001)                 2.220405216043041E+05,      /* I =832 */
(PID.TID 0000.0001)                 2.694110134598581E+05,      /* I =833 */
(PID.TID 0000.0001)                 2.705231413075805E+05,      /* I =834 */
(PID.TID 0000.0001)                 2.726579649676481E+05,      /* I =835 */
(PID.TID 0000.0001)                 2.756548836326629E+05,      /* I =836 */
(PID.TID 0000.0001)                 2.793107344025355E+05,      /* I =837 */
(PID.TID 0000.0001)                 2.834083988863162E+05,      /* I =838 */
(PID.TID 0000.0001)                 2.877383482793128E+05,      /* I =839 */
(PID.TID 0000.0001)                 2.921111682925773E+05,      /* I =840 */
(PID.TID 0000.0001)                 2.963626409677758E+05,      /* I =841 */
(PID.TID 0000.0001)                 3.003541383476192E+05,      /* I =842 */
(PID.TID 0000.0001)                 3.039707489303444E+05,      /* I =843 */
(PID.TID 0000.0001)                 3.071187272280302E+05,      /* I =844 */
(PID.TID 0000.0001)                 3.097231021673243E+05,      /* I =845 */
(PID.TID 0000.0001)                 3.117257745272702E+05,      /* I =846 */
(PID.TID 0000.0001)                 3.130841559279307E+05,      /* I =847 */
(PID.TID 0000.0001)     2 @  3.137703202065625E+05,             /* I =848:849 */
(PID.TID 0000.0001)                 3.130841559279307E+05,      /* I =850 */
(PID.TID 0000.0001)                 3.117257745272702E+05,      /* I =851 */
(PID.TID 0000.0001)                 3.097231021673243E+05,      /* I =852 */
(PID.TID 0000.0001)                 3.071187272280302E+05,      /* I =853 */
(PID.TID 0000.0001)                 3.039707489303444E+05,      /* I =854 */
(PID.TID 0000.0001)                 3.003541383476192E+05,      /* I =855 */
(PID.TID 0000.0001)                 2.963626409677758E+05,      /* I =856 */
(PID.TID 0000.0001)                 2.921111682925773E+05,      /* I =857 */
(PID.TID 0000.0001)                 2.877383482793128E+05,      /* I =858 */
(PID.TID 0000.0001)                 2.834083988863162E+05,      /* I =859 */
(PID.TID 0000.0001)                 2.793107344025355E+05,      /* I =860 */
(PID.TID 0000.0001)                 2.756548836326629E+05,      /* I =861 */
(PID.TID 0000.0001)                 2.726579649676481E+05,      /* I =862 */
(PID.TID 0000.0001)                 2.705231413075805E+05,      /* I =863 */
(PID.TID 0000.0001)                 2.694110134598581E+05,      /* I =864 */
(PID.TID 0000.0001)                 2.945429307892709E+05,      /* I =865 */
(PID.TID 0000.0001)                 2.951012585576127E+05,      /* I =866 */
(PID.TID 0000.0001)                 2.961902079695312E+05,      /* I =867 */
(PID.TID 0000.0001)                 2.977567820180416E+05,      /* I =868 */
(PID.TID 0000.0001)                 2.997270416250828E+05,      /* I =869 */
(PID.TID 0000.0001)                 3.020116016720391E+05,      /* I =870 */
(PID.TID 0000.0001)                 3.045114407675102E+05,      /* I =871 */
(PID.TID 0000.0001)                 3.071233596908996E+05,      /* I =872 */
(PID.TID 0000.0001)                 3.097446928597904E+05,      /* I =873 */
(PID.TID 0000.0001)                 3.122771345611457E+05,      /* I =874 */
(PID.TID 0000.0001)                 3.146297218670249E+05,      /* I =875 */
(PID.TID 0000.0001)                 3.167211063730236E+05,      /* I =876 */
(PID.TID 0000.0001)                 3.184812669057048E+05,      /* I =877 */
(PID.TID 0000.0001)                 3.198527947158009E+05,      /* I =878 */
(PID.TID 0000.0001)                 3.207918466481293E+05,      /* I =879 */
(PID.TID 0000.0001)     2 @  3.212688630823077E+05,             /* I =880:881 */
(PID.TID 0000.0001)                 3.207918466481293E+05,      /* I =882 */
(PID.TID 0000.0001)                 3.198527947158009E+05,      /* I =883 */
(PID.TID 0000.0001)                 3.184812669057048E+05,      /* I =884 */
(PID.TID 0000.0001)                 3.167211063730236E+05,      /* I =885 */
(PID.TID 0000.0001)                 3.146297218670249E+05,      /* I =886 */
(PID.TID 0000.0001)                 3.122771345611457E+05,      /* I =887 */
(PID.TID 0000.0001)                 3.097446928597904E+05,      /* I =888 */
(PID.TID 0000.0001)                 3.071233596908996E+05,      /* I =889 */
(PID.TID 0000.0001)                 3.045114407675102E+05,      /* I =890 */
(PID.TID 0000.0001)                 3.020116016720391E+05,      /* I =891 */
(PID.TID 0000.0001)                 2.997270416250828E+05,      /* I =892 */
(PID.TID 0000.0001)                 2.977567820180416E+05,      /* I =893 */
(PID.TID 0000.0001)                 2.961902079695312E+05,      /* I =894 */
(PID.TID 0000.0001)                 2.951012585576127E+05,      /* I =895 */
(PID.TID 0000.0001)                 2.945429307892709E+05,      /* I =896 */
(PID.TID 0000.0001)                 3.012844832048790E+05,      /* I =897 */
(PID.TID 0000.0001)                 3.017314519159184E+05,      /* I =898 */
(PID.TID 0000.0001)                 3.026061571839506E+05,      /* I =899 */
(PID.TID 0000.0001)                 3.038712499122208E+05,      /* I =900 */
(PID.TID 0000.0001)                 3.054733694195115E+05,      /* I =901 */
(PID.TID 0000.0001)                 3.073460170047538E+05,      /* I =902 */
(PID.TID 0000.0001)                 3.094129252024922E+05,      /* I =903 */
(PID.TID 0000.0001)                 3.115916488673079E+05,      /* I =904 */
(PID.TID 0000.0001)                 3.137971415338805E+05,      /* I =905 */
(PID.TID 0000.0001)                 3.159451387866950E+05,      /* I =906 */
(PID.TID 0000.0001)                 3.179552321069062E+05,      /* I =907 */
(PID.TID 0000.0001)                 3.197535693737994E+05,      /* I =908 */
(PID.TID 0000.0001)                 3.212751560265627E+05,      /* I =909 */
(PID.TID 0000.0001)                 3.224657535572011E+05,      /* I =910 */
(PID.TID 0000.0001)                 3.232833825614068E+05,      /* I =911 */
(PID.TID 0000.0001)     2 @  3.236994750082736E+05,             /* I =912:913 */
(PID.TID 0000.0001)                 3.232833825614068E+05,      /* I =914 */
(PID.TID 0000.0001)                 3.224657535572011E+05,      /* I =915 */
(PID.TID 0000.0001)                 3.212751560265627E+05,      /* I =916 */
(PID.TID 0000.0001)                 3.197535693737994E+05,      /* I =917 */
(PID.TID 0000.0001)                 3.179552321069062E+05,      /* I =918 */
(PID.TID 0000.0001)                 3.159451387866950E+05,      /* I =919 */
(PID.TID 0000.0001)                 3.137971415338805E+05,      /* I =920 */
(PID.TID 0000.0001)                 3.115916488673079E+05,      /* I =921 */
(PID.TID 0000.0001)                 3.094129252024922E+05,      /* I =922 */
(PID.TID 0000.0001)                 3.073460170047538E+05,      /* I =923 */
(PID.TID 0000.0001)                 3.054733694195115E+05,      /* I =924 */
(PID.TID 0000.0001)                 3.038712499122208E+05,      /* I =925 */
(PID.TID 0000.0001)                 3.026061571839506E+05,      /* I =926 */
(PID.TID 0000.0001)                 3.017314519159184E+05,      /* I =927 */
(PID.TID 0000.0001)                 3.012844832048790E+05,      /* I =928 */
(PID.TID 0000.0001)                 2.900303768613599E+05,      /* I =929 */
(PID.TID 0000.0001)                 2.906706565369413E+05,      /* I =930 */
(PID.TID 0000.0001)                 2.919164736866363E+05,      /* I =931 */
(PID.TID 0000.0001)                 2.937020375736682E+05,      /* I =932 */
(PID.TID 0000.0001)                 2.959369960765984E+05,      /* I =933 */
(PID.TID 0000.0001)                 2.985143016243727E+05,      /* I =934 */
(PID.TID 0000.0001)                 3.013180578167061E+05,      /* I =935 */
(PID.TID 0000.0001)                 3.042303595100670E+05,      /* I =936 */
(PID.TID 0000.0001)                 3.071366753786757E+05,      /* I =937 */
(PID.TID 0000.0001)                 3.099297624247245E+05,      /* I =938 */
(PID.TID 0000.0001)                 3.125123546816480E+05,      /* I =939 */
(PID.TID 0000.0001)                 3.147989491998900E+05,      /* I =940 */
(PID.TID 0000.0001)                 3.167169842566044E+05,      /* I =941 */
(PID.TID 0000.0001)                 3.182076300546702E+05,      /* I =942 */
(PID.TID 0000.0001)                 3.192263328390683E+05,      /* I =943 */
(PID.TID 0000.0001)     2 @  3.197432274745630E+05,             /* I =944:945 */
(PID.TID 0000.0001)                 3.192263328390683E+05,      /* I =946 */
(PID.TID 0000.0001)                 3.182076300546702E+05,      /* I =947 */
(PID.TID 0000.0001)                 3.167169842566044E+05,      /* I =948 */
(PID.TID 0000.0001)                 3.147989491998900E+05,      /* I =949 */
(PID.TID 0000.0001)                 3.125123546816480E+05,      /* I =950 */
(PID.TID 0000.0001)                 3.099297624247245E+05,      /* I =951 */
(PID.TID 0000.0001)                 3.071366753786757E+05,      /* I =952 */
(PID.TID 0000.0001)                 3.042303595100670E+05,      /* I =953 */
(PID.TID 0000.0001)                 3.013180578167061E+05,      /* I =954 */
(PID.TID 0000.0001)                 2.985143016243727E+05,      /* I =955 */
(PID.TID 0000.0001)                 2.959369960765984E+05,      /* I =956 */
(PID.TID 0000.0001)                 2.937020375736682E+05,      /* I =957 */
(PID.TID 0000.0001)                 2.919164736866363E+05,      /* I =958 */
(PID.TID 0000.0001)                 2.906706565369413E+05,      /* I =959 */
(PID.TID 0000.0001)                 2.900303768613599E+05,      /* I =960 */
(PID.TID 0000.0001)                 2.599949918261881E+05,      /* I =961 */
(PID.TID 0000.0001)                 2.613928019944271E+05,      /* I =962 */
(PID.TID 0000.0001)                 2.640534701478141E+05,      /* I =963 */
(PID.TID 0000.0001)                 2.677421336598871E+05,      /* I =964 */
(PID.TID 0000.0001)                 2.721754665816094E+05,      /* I =965 */
(PID.TID 0000.0001)                 2.770677082849345E+05,      /* I =966 */
(PID.TID 0000.0001)                 2.821597581064359E+05,      /* I =967 */
(PID.TID 0000.0001)                 2.872314003732699E+05,      /* I =968 */
(PID.TID 0000.0001)                 2.921023023566398E+05,      /* I =969 */
(PID.TID 0000.0001)                 2.966276260863712E+05,      /* I =970 */
(PID.TID 0000.0001)                 3.006921489793282E+05,      /* I =971 */
(PID.TID 0000.0001)                 3.042048495507529E+05,      /* I =972 */
(PID.TID 0000.0001)                 3.070946554358933E+05,      /* I =973 */
(PID.TID 0000.0001)                 3.093074100109176E+05,      /* I =974 */
(PID.TID 0000.0001)                 3.108038593575396E+05,      /* I =975 */
(PID.TID 0000.0001)     2 @  3.115584474900804E+05,             /* I =976:977 */
(PID.TID 0000.0001)                 3.108038593575396E+05,      /* I =978 */
(PID.TID 0000.0001)                 3.093074100109176E+05,      /* I =979 */
(PID.TID 0000.0001)                 3.070946554358933E+05,      /* I =980 */
(PID.TID 0000.0001)                 3.042048495507529E+05,      /* I =981 */
(PID.TID 0000.0001)                 3.006921489793282E+05,      /* I =982 */
(PID.TID 0000.0001)                 2.966276260863712E+05,      /* I =983 */
(PID.TID 0000.0001)                 2.921023023566398E+05,      /* I =984 */
(PID.TID 0000.0001)                 2.872314003732699E+05,      /* I =985 */
(PID.TID 0000.0001)                 2.821597581064359E+05,      /* I =986 */
(PID.TID 0000.0001)                 2.770677082849345E+05,      /* I =987 */
(PID.TID 0000.0001)                 2.721754665816094E+05,      /* I =988 */
(PID.TID 0000.0001)                 2.677421336598871E+05,      /* I =989 */
(PID.TID 0000.0001)                 2.640534701478141E+05,      /* I =990 */
(PID.TID 0000.0001)                 2.613928019944271E+05,      /* I =991 */
(PID.TID 0000.0001)                 2.599949918261881E+05,      /* I =992 */
(PID.TID 0000.0001)                 2.048868197919576E+05,      /* I =993 */
(PID.TID 0000.0001)                 2.098871716285330E+05,      /* I =994 */
(PID.TID 0000.0001)                 2.183552757714993E+05,      /* I =995 */
(PID.TID 0000.0001)                 2.284883157115105E+05,      /* I =996 */
(PID.TID 0000.0001)                 2.390259833947229E+05,      /* I =997 */
(PID.TID 0000.0001)                 2.492723940965486E+05,      /* I =998 */
(PID.TID 0000.0001)                 2.588804175347912E+05,      /* I =999 */
(PID.TID 0000.0001)                 2.676821762100863E+05,      /* I =*** */
(PID.TID 0000.0001)                 2.755951392607118E+05,      /* I =*** */
(PID.TID 0000.0001)                 2.825758551959615E+05,      /* I =*** */
(PID.TID 0000.0001)                 2.885983146955540E+05,      /* I =*** */
(PID.TID 0000.0001)                 2.936442966455010E+05,      /* I =*** */
(PID.TID 0000.0001)                 2.976994255899062E+05,      /* I =*** */
(PID.TID 0000.0001)                 3.007518957476707E+05,      /* I =*** */
(PID.TID 0000.0001)                 3.027923688443646E+05,      /* I =*** */
(PID.TID 0000.0001)     2 @  3.038143430929827E+05,             /* I =***:*** */
(PID.TID 0000.0001)                 3.027923688443646E+05,      /* I =*** */
(PID.TID 0000.0001)                 3.007518957476707E+05,      /* I =*** */
(PID.TID 0000.0001)                 2.976994255899062E+05,      /* I =*** */
(PID.TID 0000.0001)                 2.936442966455010E+05,      /* I =*** */
(PID.TID 0000.0001)                 2.885983146955540E+05,      /* I =*** */
(PID.TID 0000.0001)                 2.825758551959615E+05,      /* I =*** */
(PID.TID 0000.0001)                 2.755951392607118E+05,      /* I =*** */
(PID.TID 0000.0001)                 2.676821762100863E+05,      /* I =*** */
(PID.TID 0000.0001)                 2.588804175347912E+05,      /* I =*** */
(PID.TID 0000.0001)                 2.492723940965486E+05,      /* I =*** */
(PID.TID 0000.0001)                 2.390259833947229E+05,      /* I =*** */
(PID.TID 0000.0001)                 2.284883157115105E+05,      /* I =*** */
(PID.TID 0000.0001)                 2.183552757714993E+05,      /* I =*** */
(PID.TID 0000.0001)                 2.098871716285330E+05,      /* I =*** */
(PID.TID 0000.0001)                 2.048868197919576E+05,      /* I =*** */
(PID.TID 0000.0001)                 1.202082051331828E+05,      /* I =*** */
(PID.TID 0000.0001)                 1.563594089971120E+05,      /* I =*** */
(PID.TID 0000.0001)                 1.835530058121492E+05,      /* I =*** */
(PID.TID 0000.0001)                 2.045883481718707E+05,      /* I =*** */
(PID.TID 0000.0001)                 2.218350349844185E+05,      /* I =*** */
(PID.TID 0000.0001)                 2.364352994647058E+05,      /* I =*** */
(PID.TID 0000.0001)                 2.490022710862746E+05,      /* I =*** */
(PID.TID 0000.0001)                 2.598919724358304E+05,      /* I =*** */
(PID.TID 0000.0001)                 2.693210245495156E+05,      /* I =*** */
(PID.TID 0000.0001)                 2.774243179696503E+05,      /* I =*** */
(PID.TID 0000.0001)                 2.842862532064524E+05,      /* I =*** */
(PID.TID 0000.0001)                 2.899590699694043E+05,      /* I =*** */
(PID.TID 0000.0001)                 2.944742915095688E+05,      /* I =*** */
(PID.TID 0000.0001)                 2.978501920522794E+05,      /* I =*** */
(PID.TID 0000.0001)                 3.000967749619962E+05,      /* I =*** */
(PID.TID 0000.0001)     2 @  3.012190981969055E+05,             /* I =***:*** */
(PID.TID 0000.0001)                 3.000967749619962E+05,      /* I =*** */
(PID.TID 0000.0001)                 2.978501920522794E+05,      /* I =*** */
(PID.TID 0000.0001)                 2.944742915095688E+05,      /* I =*** */
(PID.TID 0000.0001)                 2.899590699694043E+05,      /* I =*** */
(PID.TID 0000.0001)                 2.842862532064524E+05,      /* I =*** */
(PID.TID 0000.0001)                 2.774243179696503E+05,      /* I =*** */
(PID.TID 0000.0001)                 2.693210245495156E+05,      /* I =*** */
(PID.TID 0000.0001)                 2.598919724358304E+05,      /* I =*** */
(PID.TID 0000.0001)                 2.490022710862746E+05,      /* I =*** */
(PID.TID 0000.0001)                 2.364352994647058E+05,      /* I =*** */
(PID.TID 0000.0001)                 2.218350349844185E+05,      /* I =*** */
(PID.TID 0000.0001)                 2.045883481718707E+05,      /* I =*** */
(PID.TID 0000.0001)                 1.835530058121492E+05,      /* I =*** */
(PID.TID 0000.0001)                 1.563594089971120E+05,      /* I =*** */
(PID.TID 0000.0001)                 1.202082051331828E+05,      /* I =*** */
(PID.TID 0000.0001)                 2.220405216043041E+05,      /* I =*** */
(PID.TID 0000.0001)                 2.253995103830070E+05,      /* I =*** */
(PID.TID 0000.0001)                 2.314062085131702E+05,      /* I =*** */
(PID.TID 0000.0001)                 2.390627990003637E+05,      /* I =*** */
(PID.TID 0000.0001)                 2.474852428920030E+05,      /* I =*** */
(PID.TID 0000.0001)                 2.560456633895537E+05,      /* I =*** */
(PID.TID 0000.0001)                 2.643436975229842E+05,      /* I =*** */
(PID.TID 0000.0001)                 2.721339566565751E+05,      /* I =*** */
(PID.TID 0000.0001)                 2.792653032262129E+05,      /* I =*** */
(PID.TID 0000.0001)                 2.856413272949365E+05,      /* I =*** */
(PID.TID 0000.0001)                 2.911971973735105E+05,      /* I =*** */
(PID.TID 0000.0001)                 2.958868484465457E+05,      /* I =*** */
(PID.TID 0000.0001)                 2.996761960679202E+05,      /* I =*** */
(PID.TID 0000.0001)                 3.025397245330187E+05,      /* I =*** */
(PID.TID 0000.0001)                 3.044589008849406E+05,      /* I =*** */
(PID.TID 0000.0001)     2 @  3.054215712079756E+05,             /* I =***:*** */
(PID.TID 0000.0001)                 3.044589008849406E+05,      /* I =*** */
(PID.TID 0000.0001)                 3.025397245330187E+05,      /* I =*** */
(PID.TID 0000.0001)                 2.996761960679202E+05,      /* I =*** */
(PID.TID 0000.0001)                 2.958868484465457E+05,      /* I =*** */
(PID.TID 0000.0001)                 2.911971973735105E+05,      /* I =*** */
(PID.TID 0000.0001)                 2.856413272949365E+05,      /* I =*** */
(PID.TID 0000.0001)                 2.792653032262129E+05,      /* I =*** */
(PID.TID 0000.0001)                 2.721339566565751E+05,      /* I =*** */
(PID.TID 0000.0001)                 2.643436975229842E+05,      /* I =*** */
(PID.TID 0000.0001)                 2.560456633895537E+05,      /* I =*** */
(PID.TID 0000.0001)                 2.474852428920030E+05,      /* I =*** */
(PID.TID 0000.0001)                 2.390627990003637E+05,      /* I =*** */
(PID.TID 0000.0001)                 2.314062085131702E+05,      /* I =*** */
(PID.TID 0000.0001)                 2.253995103830070E+05,      /* I =*** */
(PID.TID 0000.0001)                 2.220405216043041E+05,      /* I =*** */
(PID.TID 0000.0001)                 2.694110134598581E+05,      /* I =*** */
(PID.TID 0000.0001)                 2.705231413075805E+05,      /* I =*** */
(PID.TID 0000.0001)                 2.726579649676481E+05,      /* I =*** */
(PID.TID 0000.0001)                 2.756548836326629E+05,      /* I =*** */
(PID.TID 0000.0001)                 2.793107344025355E+05,      /* I =*** */
(PID.TID 0000.0001)                 2.834083988863162E+05,      /* I =*** */
(PID.TID 0000.0001)                 2.877383482793128E+05,      /* I =*** */
(PID.TID 0000.0001)                 2.921111682925773E+05,      /* I =*** */
(PID.TID 0000.0001)                 2.963626409677758E+05,      /* I =*** */
(PID.TID 0000.0001)                 3.003541383476192E+05,      /* I =*** */
(PID.TID 0000.0001)                 3.039707489303444E+05,      /* I =*** */
(PID.TID 0000.0001)                 3.071187272280302E+05,      /* I =*** */
(PID.TID 0000.0001)                 3.097231021673243E+05,      /* I =*** */
(PID.TID 0000.0001)                 3.117257745272702E+05,      /* I =*** */
(PID.TID 0000.0001)                 3.130841559279307E+05,      /* I =*** */
(PID.TID 0000.0001)     2 @  3.137703202065625E+05,             /* I =***:*** */
(PID.TID 0000.0001)                 3.130841559279307E+05,      /* I =*** */
(PID.TID 0000.0001)                 3.117257745272702E+05,      /* I =*** */
(PID.TID 0000.0001)                 3.097231021673243E+05,      /* I =*** */
(PID.TID 0000.0001)                 3.071187272280302E+05,      /* I =*** */
(PID.TID 0000.0001)                 3.039707489303444E+05,      /* I =*** */
(PID.TID 0000.0001)                 3.003541383476192E+05,      /* I =*** */
(PID.TID 0000.0001)                 2.963626409677758E+05,      /* I =*** */
(PID.TID 0000.0001)                 2.921111682925773E+05,      /* I =*** */
(PID.TID 0000.0001)                 2.877383482793128E+05,      /* I =*** */
(PID.TID 0000.0001)                 2.834083988863162E+05,      /* I =*** */
(PID.TID 0000.0001)                 2.793107344025355E+05,      /* I =*** */
(PID.TID 0000.0001)                 2.756548836326629E+05,      /* I =*** */
(PID.TID 0000.0001)                 2.726579649676481E+05,      /* I =*** */
(PID.TID 0000.0001)                 2.705231413075805E+05,      /* I =*** */
(PID.TID 0000.0001)                 2.694110134598581E+05,      /* I =*** */
(PID.TID 0000.0001)                 2.945429307892709E+05,      /* I =*** */
(PID.TID 0000.0001)                 2.951012585576127E+05,      /* I =*** */
(PID.TID 0000.0001)                 2.961902079695312E+05,      /* I =*** */
(PID.TID 0000.0001)                 2.977567820180416E+05,      /* I =*** */
(PID.TID 0000.0001)                 2.997270416250828E+05,      /* I =*** */
(PID.TID 0000.0001)                 3.020116016720391E+05,      /* I =*** */
(PID.TID 0000.0001)                 3.045114407675102E+05,      /* I =*** */
(PID.TID 0000.0001)                 3.071233596908996E+05,      /* I =*** */
(PID.TID 0000.0001)                 3.097446928597904E+05,      /* I =*** */
(PID.TID 0000.0001)                 3.122771345611457E+05,      /* I =*** */
(PID.TID 0000.0001)                 3.146297218670249E+05,      /* I =*** */
(PID.TID 0000.0001)                 3.167211063730236E+05,      /* I =*** */
(PID.TID 0000.0001)                 3.184812669057048E+05,      /* I =*** */
(PID.TID 0000.0001)                 3.198527947158009E+05,      /* I =*** */
(PID.TID 0000.0001)                 3.207918466481293E+05,      /* I =*** */
(PID.TID 0000.0001)     2 @  3.212688630823077E+05,             /* I =***:*** */
(PID.TID 0000.0001)                 3.207918466481293E+05,      /* I =*** */
(PID.TID 0000.0001)                 3.198527947158009E+05,      /* I =*** */
(PID.TID 0000.0001)                 3.184812669057048E+05,      /* I =*** */
(PID.TID 0000.0001)                 3.167211063730236E+05,      /* I =*** */
(PID.TID 0000.0001)                 3.146297218670249E+05,      /* I =*** */
(PID.TID 0000.0001)                 3.122771345611457E+05,      /* I =*** */
(PID.TID 0000.0001)                 3.097446928597904E+05,      /* I =*** */
(PID.TID 0000.0001)                 3.071233596908996E+05,      /* I =*** */
(PID.TID 0000.0001)                 3.045114407675102E+05,      /* I =*** */
(PID.TID 0000.0001)                 3.020116016720391E+05,      /* I =*** */
(PID.TID 0000.0001)                 2.997270416250828E+05,      /* I =*** */
(PID.TID 0000.0001)                 2.977567820180416E+05,      /* I =*** */
(PID.TID 0000.0001)                 2.961902079695312E+05,      /* I =*** */
(PID.TID 0000.0001)                 2.951012585576127E+05,      /* I =*** */
(PID.TID 0000.0001)                 2.945429307892709E+05,      /* I =*** */
(PID.TID 0000.0001)                 3.012844832048790E+05,      /* I =*** */
(PID.TID 0000.0001)                 3.017314519159184E+05,      /* I =*** */
(PID.TID 0000.0001)                 3.026061571839506E+05,      /* I =*** */
(PID.TID 0000.0001)                 3.038712499122208E+05,      /* I =*** */
(PID.TID 0000.0001)                 3.054733694195115E+05,      /* I =*** */
(PID.TID 0000.0001)                 3.073460170047538E+05,      /* I =*** */
(PID.TID 0000.0001)                 3.094129252024922E+05,      /* I =*** */
(PID.TID 0000.0001)                 3.115916488673079E+05,      /* I =*** */
(PID.TID 0000.0001)                 3.137971415338805E+05,      /* I =*** */
(PID.TID 0000.0001)                 3.159451387866950E+05,      /* I =*** */
(PID.TID 0000.0001)                 3.179552321069062E+05,      /* I =*** */
(PID.TID 0000.0001)                 3.197535693737994E+05,      /* I =*** */
(PID.TID 0000.0001)                 3.212751560265627E+05,      /* I =*** */
(PID.TID 0000.0001)                 3.224657535572011E+05,      /* I =*** */
(PID.TID 0000.0001)                 3.232833825614068E+05,      /* I =*** */
(PID.TID 0000.0001)     2 @  3.236994750082736E+05,             /* I =***:*** */
(PID.TID 0000.0001)                 3.232833825614068E+05,      /* I =*** */
(PID.TID 0000.0001)                 3.224657535572011E+05,      /* I =*** */
(PID.TID 0000.0001)                 3.212751560265627E+05,      /* I =*** */
(PID.TID 0000.0001)                 3.197535693737994E+05,      /* I =*** */
(PID.TID 0000.0001)                 3.179552321069062E+05,      /* I =*** */
(PID.TID 0000.0001)                 3.159451387866950E+05,      /* I =*** */
(PID.TID 0000.0001)                 3.137971415338805E+05,      /* I =*** */
(PID.TID 0000.0001)                 3.115916488673079E+05,      /* I =*** */
(PID.TID 0000.0001)                 3.094129252024922E+05,      /* I =*** */
(PID.TID 0000.0001)                 3.073460170047538E+05,      /* I =*** */
(PID.TID 0000.0001)                 3.054733694195115E+05,      /* I =*** */
(PID.TID 0000.0001)                 3.038712499122208E+05,      /* I =*** */
(PID.TID 0000.0001)                 3.026061571839506E+05,      /* I =*** */
(PID.TID 0000.0001)                 3.017314519159184E+05,      /* I =*** */
(PID.TID 0000.0001)                 3.012844832048790E+05,      /* I =*** */
(PID.TID 0000.0001)                 2.900303768613599E+05,      /* I =*** */
(PID.TID 0000.0001)                 2.906706565369413E+05,      /* I =*** */
(PID.TID 0000.0001)                 2.919164736866363E+05,      /* I =*** */
(PID.TID 0000.0001)                 2.937020375736682E+05,      /* I =*** */
(PID.TID 0000.0001)                 2.959369960765984E+05,      /* I =*** */
(PID.TID 0000.0001)                 2.985143016243727E+05,      /* I =*** */
(PID.TID 0000.0001)                 3.013180578167061E+05,      /* I =*** */
(PID.TID 0000.0001)                 3.042303595100670E+05,      /* I =*** */
(PID.TID 0000.0001)                 3.071366753786757E+05,      /* I =*** */
(PID.TID 0000.0001)                 3.099297624247245E+05,      /* I =*** */
(PID.TID 0000.0001)                 3.125123546816480E+05,      /* I =*** */
(PID.TID 0000.0001)                 3.147989491998900E+05,      /* I =*** */
(PID.TID 0000.0001)                 3.167169842566044E+05,      /* I =*** */
(PID.TID 0000.0001)                 3.182076300546702E+05,      /* I =*** */
(PID.TID 0000.0001)                 3.192263328390683E+05,      /* I =*** */
(PID.TID 0000.0001)     2 @  3.197432274745630E+05,             /* I =***:*** */
(PID.TID 0000.0001)                 3.192263328390683E+05,      /* I =*** */
(PID.TID 0000.0001)                 3.182076300546702E+05,      /* I =*** */
(PID.TID 0000.0001)                 3.167169842566044E+05,      /* I =*** */
(PID.TID 0000.0001)                 3.147989491998900E+05,      /* I =*** */
(PID.TID 0000.0001)                 3.125123546816480E+05,      /* I =*** */
(PID.TID 0000.0001)                 3.099297624247245E+05,      /* I =*** */
(PID.TID 0000.0001)                 3.071366753786757E+05,      /* I =*** */
(PID.TID 0000.0001)                 3.042303595100670E+05,      /* I =*** */
(PID.TID 0000.0001)                 3.013180578167061E+05,      /* I =*** */
(PID.TID 0000.0001)                 2.985143016243727E+05,      /* I =*** */
(PID.TID 0000.0001)                 2.959369960765984E+05,      /* I =*** */
(PID.TID 0000.0001)                 2.937020375736682E+05,      /* I =*** */
(PID.TID 0000.0001)                 2.919164736866363E+05,      /* I =*** */
(PID.TID 0000.0001)                 2.906706565369413E+05,      /* I =*** */
(PID.TID 0000.0001)                 2.900303768613599E+05,      /* I =*** */
(PID.TID 0000.0001)                 2.599949918261881E+05,      /* I =*** */
(PID.TID 0000.0001)                 2.613928019944271E+05,      /* I =*** */
(PID.TID 0000.0001)                 2.640534701478141E+05,      /* I =*** */
(PID.TID 0000.0001)                 2.677421336598871E+05,      /* I =*** */
(PID.TID 0000.0001)                 2.721754665816094E+05,      /* I =*** */
(PID.TID 0000.0001)                 2.770677082849345E+05,      /* I =*** */
(PID.TID 0000.0001)                 2.821597581064359E+05,      /* I =*** */
(PID.TID 0000.0001)                 2.872314003732699E+05,      /* I =*** */
(PID.TID 0000.0001)                 2.921023023566398E+05,      /* I =*** */
(PID.TID 0000.0001)                 2.966276260863712E+05,      /* I =*** */
(PID.TID 0000.0001)                 3.006921489793282E+05,      /* I =*** */
(PID.TID 0000.0001)                 3.042048495507529E+05,      /* I =*** */
(PID.TID 0000.0001)                 3.070946554358933E+05,      /* I =*** */
(PID.TID 0000.0001)                 3.093074100109176E+05,      /* I =*** */
(PID.TID 0000.0001)                 3.108038593575396E+05,      /* I =*** */
(PID.TID 0000.0001)     2 @  3.115584474900804E+05,             /* I =***:*** */
(PID.TID 0000.0001)                 3.108038593575396E+05,      /* I =*** */
(PID.TID 0000.0001)                 3.093074100109176E+05,      /* I =*** */
(PID.TID 0000.0001)                 3.070946554358933E+05,      /* I =*** */
(PID.TID 0000.0001)                 3.042048495507529E+05,      /* I =*** */
(PID.TID 0000.0001)                 3.006921489793282E+05,      /* I =*** */
(PID.TID 0000.0001)                 2.966276260863712E+05,      /* I =*** */
(PID.TID 0000.0001)                 2.921023023566398E+05,      /* I =*** */
(PID.TID 0000.0001)                 2.872314003732699E+05,      /* I =*** */
(PID.TID 0000.0001)                 2.821597581064359E+05,      /* I =*** */
(PID.TID 0000.0001)                 2.770677082849345E+05,      /* I =*** */
(PID.TID 0000.0001)                 2.721754665816094E+05,      /* I =*** */
(PID.TID 0000.0001)                 2.677421336598871E+05,      /* I =*** */
(PID.TID 0000.0001)                 2.640534701478141E+05,      /* I =*** */
(PID.TID 0000.0001)                 2.613928019944271E+05,      /* I =*** */
(PID.TID 0000.0001)                 2.599949918261881E+05,      /* I =*** */
(PID.TID 0000.0001)                 2.048868197919576E+05,      /* I =*** */
(PID.TID 0000.0001)                 2.098871716285330E+05,      /* I =*** */
(PID.TID 0000.0001)                 2.183552757714993E+05,      /* I =*** */
(PID.TID 0000.0001)                 2.284883157115105E+05,      /* I =*** */
(PID.TID 0000.0001)                 2.390259833947229E+05,      /* I =*** */
(PID.TID 0000.0001)                 2.492723940965486E+05,      /* I =*** */
(PID.TID 0000.0001)                 2.588804175347912E+05,      /* I =*** */
(PID.TID 0000.0001)                 2.676821762100863E+05,      /* I =*** */
(PID.TID 0000.0001)                 2.755951392607118E+05,      /* I =*** */
(PID.TID 0000.0001)                 2.825758551959615E+05,      /* I =*** */
(PID.TID 0000.0001)                 2.885983146955540E+05,      /* I =*** */
(PID.TID 0000.0001)                 2.936442966455010E+05,      /* I =*** */
(PID.TID 0000.0001)                 2.976994255899062E+05,      /* I =*** */
(PID.TID 0000.0001)                 3.007518957476707E+05,      /* I =*** */
(PID.TID 0000.0001)                 3.027923688443646E+05,      /* I =*** */
(PID.TID 0000.0001)     2 @  3.038143430929827E+05,             /* I =***:*** */
(PID.TID 0000.0001)                 3.027923688443646E+05,      /* I =*** */
(PID.TID 0000.0001)                 3.007518957476707E+05,      /* I =*** */
(PID.TID 0000.0001)                 2.976994255899062E+05,      /* I =*** */
(PID.TID 0000.0001)                 2.936442966455010E+05,      /* I =*** */
(PID.TID 0000.0001)                 2.885983146955540E+05,      /* I =*** */
(PID.TID 0000.0001)                 2.825758551959615E+05,      /* I =*** */
(PID.TID 0000.0001)                 2.755951392607118E+05,      /* I =*** */
(PID.TID 0000.0001)                 2.676821762100863E+05,      /* I =*** */
(PID.TID 0000.0001)                 2.588804175347912E+05,      /* I =*** */
(PID.TID 0000.0001)                 2.492723940965486E+05,      /* I =*** */
(PID.TID 0000.0001)                 2.390259833947229E+05,      /* I =*** */
(PID.TID 0000.0001)                 2.284883157115105E+05,      /* I =*** */
(PID.TID 0000.0001)                 2.183552757714993E+05,      /* I =*** */
(PID.TID 0000.0001)                 2.098871716285330E+05,      /* I =*** */
(PID.TID 0000.0001)                 2.048868197919576E+05,      /* I =*** */
(PID.TID 0000.0001)                 1.202082051331828E+05,      /* I =*** */
(PID.TID 0000.0001)                 1.563594089971120E+05,      /* I =*** */
(PID.TID 0000.0001)                 1.835530058121492E+05,      /* I =*** */
(PID.TID 0000.0001)                 2.045883481718707E+05,      /* I =*** */
(PID.TID 0000.0001)                 2.218350349844185E+05,      /* I =*** */
(PID.TID 0000.0001)                 2.364352994647058E+05,      /* I =*** */
(PID.TID 0000.0001)                 2.490022710862746E+05,      /* I =*** */
(PID.TID 0000.0001)                 2.598919724358304E+05,      /* I =*** */
(PID.TID 0000.0001)                 2.693210245495156E+05,      /* I =*** */
(PID.TID 0000.0001)                 2.774243179696503E+05,      /* I =*** */
(PID.TID 0000.0001)                 2.842862532064524E+05,      /* I =*** */
(PID.TID 0000.0001)                 2.899590699694043E+05,      /* I =*** */
(PID.TID 0000.0001)                 2.944742915095688E+05,      /* I =*** */
(PID.TID 0000.0001)                 2.978501920522794E+05,      /* I =*** */
(PID.TID 0000.0001)                 3.000967749619962E+05,      /* I =*** */
(PID.TID 0000.0001)     2 @  3.012190981969055E+05,             /* I =***:*** */
(PID.TID 0000.0001)                 3.000967749619962E+05,      /* I =*** */
(PID.TID 0000.0001)                 2.978501920522794E+05,      /* I =*** */
(PID.TID 0000.0001)                 2.944742915095688E+05,      /* I =*** */
(PID.TID 0000.0001)                 2.899590699694043E+05,      /* I =*** */
(PID.TID 0000.0001)                 2.842862532064524E+05,      /* I =*** */
(PID.TID 0000.0001)                 2.774243179696503E+05,      /* I =*** */
(PID.TID 0000.0001)                 2.693210245495156E+05,      /* I =*** */
(PID.TID 0000.0001)                 2.598919724358304E+05,      /* I =*** */
(PID.TID 0000.0001)                 2.490022710862746E+05,      /* I =*** */
(PID.TID 0000.0001)                 2.364352994647058E+05,      /* I =*** */
(PID.TID 0000.0001)                 2.218350349844185E+05,      /* I =*** */
(PID.TID 0000.0001)                 2.045883481718707E+05,      /* I =*** */
(PID.TID 0000.0001)                 1.835530058121492E+05,      /* I =*** */
(PID.TID 0000.0001)                 1.563594089971120E+05,      /* I =*** */
(PID.TID 0000.0001)                 1.202082051331828E+05,      /* I =*** */
(PID.TID 0000.0001)                 2.220405216043041E+05,      /* I =*** */
(PID.TID 0000.0001)                 2.253995103830070E+05,      /* I =*** */
(PID.TID 0000.0001)                 2.314062085131702E+05,      /* I =*** */
(PID.TID 0000.0001)                 2.390627990003637E+05,      /* I =*** */
(PID.TID 0000.0001)                 2.474852428920030E+05,      /* I =*** */
(PID.TID 0000.0001)                 2.560456633895537E+05,      /* I =*** */
(PID.TID 0000.0001)                 2.643436975229842E+05,      /* I =*** */
(PID.TID 0000.0001)                 2.721339566565751E+05,      /* I =*** */
(PID.TID 0000.0001)                 2.792653032262129E+05,      /* I =*** */
(PID.TID 0000.0001)                 2.856413272949365E+05,      /* I =*** */
(PID.TID 0000.0001)                 2.911971973735105E+05,      /* I =*** */
(PID.TID 0000.0001)                 2.958868484465457E+05,      /* I =*** */
(PID.TID 0000.0001)                 2.996761960679202E+05,      /* I =*** */
(PID.TID 0000.0001)                 3.025397245330187E+05,      /* I =*** */
(PID.TID 0000.0001)                 3.044589008849406E+05,      /* I =*** */
(PID.TID 0000.0001)     2 @  3.054215712079756E+05,             /* I =***:*** */
(PID.TID 0000.0001)                 3.044589008849406E+05,      /* I =*** */
(PID.TID 0000.0001)                 3.025397245330187E+05,      /* I =*** */
(PID.TID 0000.0001)                 2.996761960679202E+05,      /* I =*** */
(PID.TID 0000.0001)                 2.958868484465457E+05,      /* I =*** */
(PID.TID 0000.0001)                 2.911971973735105E+05,      /* I =*** */
(PID.TID 0000.0001)                 2.856413272949365E+05,      /* I =*** */
(PID.TID 0000.0001)                 2.792653032262129E+05,      /* I =*** */
(PID.TID 0000.0001)                 2.721339566565751E+05,      /* I =*** */
(PID.TID 0000.0001)                 2.643436975229842E+05,      /* I =*** */
(PID.TID 0000.0001)                 2.560456633895537E+05,      /* I =*** */
(PID.TID 0000.0001)                 2.474852428920030E+05,      /* I =*** */
(PID.TID 0000.0001)                 2.390627990003637E+05,      /* I =*** */
(PID.TID 0000.0001)                 2.314062085131702E+05,      /* I =*** */
(PID.TID 0000.0001)                 2.253995103830070E+05,      /* I =*** */
(PID.TID 0000.0001)                 2.220405216043041E+05,      /* I =*** */
(PID.TID 0000.0001)                 2.694110134598581E+05,      /* I =*** */
(PID.TID 0000.0001)                 2.705231413075805E+05,      /* I =*** */
(PID.TID 0000.0001)                 2.726579649676481E+05,      /* I =*** */
(PID.TID 0000.0001)                 2.756548836326629E+05,      /* I =*** */
(PID.TID 0000.0001)                 2.793107344025355E+05,      /* I =*** */
(PID.TID 0000.0001)                 2.834083988863162E+05,      /* I =*** */
(PID.TID 0000.0001)                 2.877383482793128E+05,      /* I =*** */
(PID.TID 0000.0001)                 2.921111682925773E+05,      /* I =*** */
(PID.TID 0000.0001)                 2.963626409677758E+05,      /* I =*** */
(PID.TID 0000.0001)                 3.003541383476192E+05,      /* I =*** */
(PID.TID 0000.0001)                 3.039707489303444E+05,      /* I =*** */
(PID.TID 0000.0001)                 3.071187272280302E+05,      /* I =*** */
(PID.TID 0000.0001)                 3.097231021673243E+05,      /* I =*** */
(PID.TID 0000.0001)                 3.117257745272702E+05,      /* I =*** */
(PID.TID 0000.0001)                 3.130841559279307E+05,      /* I =*** */
(PID.TID 0000.0001)     2 @  3.137703202065625E+05,             /* I =***:*** */
(PID.TID 0000.0001)                 3.130841559279307E+05,      /* I =*** */
(PID.TID 0000.0001)                 3.117257745272702E+05,      /* I =*** */
(PID.TID 0000.0001)                 3.097231021673243E+05,      /* I =*** */
(PID.TID 0000.0001)                 3.071187272280302E+05,      /* I =*** */
(PID.TID 0000.0001)                 3.039707489303444E+05,      /* I =*** */
(PID.TID 0000.0001)                 3.003541383476192E+05,      /* I =*** */
(PID.TID 0000.0001)                 2.963626409677758E+05,      /* I =*** */
(PID.TID 0000.0001)                 2.921111682925773E+05,      /* I =*** */
(PID.TID 0000.0001)                 2.877383482793128E+05,      /* I =*** */
(PID.TID 0000.0001)                 2.834083988863162E+05,      /* I =*** */
(PID.TID 0000.0001)                 2.793107344025355E+05,      /* I =*** */
(PID.TID 0000.0001)                 2.756548836326629E+05,      /* I =*** */
(PID.TID 0000.0001)                 2.726579649676481E+05,      /* I =*** */
(PID.TID 0000.0001)                 2.705231413075805E+05,      /* I =*** */
(PID.TID 0000.0001)                 2.694110134598581E+05,      /* I =*** */
(PID.TID 0000.0001)                 2.945429307892709E+05,      /* I =*** */
(PID.TID 0000.0001)                 2.951012585576127E+05,      /* I =*** */
(PID.TID 0000.0001)                 2.961902079695312E+05,      /* I =*** */
(PID.TID 0000.0001)                 2.977567820180416E+05,      /* I =*** */
(PID.TID 0000.0001)                 2.997270416250828E+05,      /* I =*** */
(PID.TID 0000.0001)                 3.020116016720391E+05,      /* I =*** */
(PID.TID 0000.0001)                 3.045114407675102E+05,      /* I =*** */
(PID.TID 0000.0001)                 3.071233596908996E+05,      /* I =*** */
(PID.TID 0000.0001)                 3.097446928597904E+05,      /* I =*** */
(PID.TID 0000.0001)                 3.122771345611457E+05,      /* I =*** */
(PID.TID 0000.0001)                 3.146297218670249E+05,      /* I =*** */
(PID.TID 0000.0001)                 3.167211063730236E+05,      /* I =*** */
(PID.TID 0000.0001)                 3.184812669057048E+05,      /* I =*** */
(PID.TID 0000.0001)                 3.198527947158009E+05,      /* I =*** */
(PID.TID 0000.0001)                 3.207918466481293E+05,      /* I =*** */
(PID.TID 0000.0001)     2 @  3.212688630823077E+05,             /* I =***:*** */
(PID.TID 0000.0001)                 3.207918466481293E+05,      /* I =*** */
(PID.TID 0000.0001)                 3.198527947158009E+05,      /* I =*** */
(PID.TID 0000.0001)                 3.184812669057048E+05,      /* I =*** */
(PID.TID 0000.0001)                 3.167211063730236E+05,      /* I =*** */
(PID.TID 0000.0001)                 3.146297218670249E+05,      /* I =*** */
(PID.TID 0000.0001)                 3.122771345611457E+05,      /* I =*** */
(PID.TID 0000.0001)                 3.097446928597904E+05,      /* I =*** */
(PID.TID 0000.0001)                 3.071233596908996E+05,      /* I =*** */
(PID.TID 0000.0001)                 3.045114407675102E+05,      /* I =*** */
(PID.TID 0000.0001)                 3.020116016720391E+05,      /* I =*** */
(PID.TID 0000.0001)                 2.997270416250828E+05,      /* I =*** */
(PID.TID 0000.0001)                 2.977567820180416E+05,      /* I =*** */
(PID.TID 0000.0001)                 2.961902079695312E+05,      /* I =*** */
(PID.TID 0000.0001)                 2.951012585576127E+05,      /* I =*** */
(PID.TID 0000.0001)                 2.945429307892709E+05,      /* I =*** */
(PID.TID 0000.0001)                 3.012844832048790E+05,      /* I =*** */
(PID.TID 0000.0001)                 3.017314519159184E+05,      /* I =*** */
(PID.TID 0000.0001)                 3.026061571839506E+05,      /* I =*** */
(PID.TID 0000.0001)                 3.038712499122208E+05,      /* I =*** */
(PID.TID 0000.0001)                 3.054733694195115E+05,      /* I =*** */
(PID.TID 0000.0001)                 3.073460170047538E+05,      /* I =*** */
(PID.TID 0000.0001)                 3.094129252024922E+05,      /* I =*** */
(PID.TID 0000.0001)                 3.115916488673079E+05,      /* I =*** */
(PID.TID 0000.0001)                 3.137971415338805E+05,      /* I =*** */
(PID.TID 0000.0001)                 3.159451387866950E+05,      /* I =*** */
(PID.TID 0000.0001)                 3.179552321069062E+05,      /* I =*** */
(PID.TID 0000.0001)                 3.197535693737994E+05,      /* I =*** */
(PID.TID 0000.0001)                 3.212751560265627E+05,      /* I =*** */
(PID.TID 0000.0001)                 3.224657535572011E+05,      /* I =*** */
(PID.TID 0000.0001)                 3.232833825614068E+05,      /* I =*** */
(PID.TID 0000.0001)     2 @  3.236994750082736E+05,             /* I =***:*** */
(PID.TID 0000.0001)                 3.232833825614068E+05,      /* I =*** */
(PID.TID 0000.0001)                 3.224657535572011E+05,      /* I =*** */
(PID.TID 0000.0001)                 3.212751560265627E+05,      /* I =*** */
(PID.TID 0000.0001)                 3.197535693737994E+05,      /* I =*** */
(PID.TID 0000.0001)                 3.179552321069062E+05,      /* I =*** */
(PID.TID 0000.0001)                 3.159451387866950E+05,      /* I =*** */
(PID.TID 0000.0001)                 3.137971415338805E+05,      /* I =*** */
(PID.TID 0000.0001)                 3.115916488673079E+05,      /* I =*** */
(PID.TID 0000.0001)                 3.094129252024922E+05,      /* I =*** */
(PID.TID 0000.0001)                 3.073460170047538E+05,      /* I =*** */
(PID.TID 0000.0001)                 3.054733694195115E+05,      /* I =*** */
(PID.TID 0000.0001)                 3.038712499122208E+05,      /* I =*** */
(PID.TID 0000.0001)                 3.026061571839506E+05,      /* I =*** */
(PID.TID 0000.0001)                 3.017314519159184E+05,      /* I =*** */
(PID.TID 0000.0001)                 3.012844832048790E+05,      /* I =*** */
(PID.TID 0000.0001)                 2.900303768613599E+05,      /* I =*** */
(PID.TID 0000.0001)                 2.906706565369413E+05,      /* I =*** */
(PID.TID 0000.0001)                 2.919164736866363E+05,      /* I =*** */
(PID.TID 0000.0001)                 2.937020375736682E+05,      /* I =*** */
(PID.TID 0000.0001)                 2.959369960765984E+05,      /* I =*** */
(PID.TID 0000.0001)                 2.985143016243727E+05,      /* I =*** */
(PID.TID 0000.0001)                 3.013180578167061E+05,      /* I =*** */
(PID.TID 0000.0001)                 3.042303595100670E+05,      /* I =*** */
(PID.TID 0000.0001)                 3.071366753786757E+05,      /* I =*** */
(PID.TID 0000.0001)                 3.099297624247245E+05,      /* I =*** */
(PID.TID 0000.0001)                 3.125123546816480E+05,      /* I =*** */
(PID.TID 0000.0001)                 3.147989491998900E+05,      /* I =*** */
(PID.TID 0000.0001)                 3.167169842566044E+05,      /* I =*** */
(PID.TID 0000.0001)                 3.182076300546702E+05,      /* I =*** */
(PID.TID 0000.0001)                 3.192263328390683E+05,      /* I =*** */
(PID.TID 0000.0001)     2 @  3.197432274745630E+05,             /* I =***:*** */
(PID.TID 0000.0001)                 3.192263328390683E+05,      /* I =*** */
(PID.TID 0000.0001)                 3.182076300546702E+05,      /* I =*** */
(PID.TID 0000.0001)                 3.167169842566044E+05,      /* I =*** */
(PID.TID 0000.0001)                 3.147989491998900E+05,      /* I =*** */
(PID.TID 0000.0001)                 3.125123546816480E+05,      /* I =*** */
(PID.TID 0000.0001)                 3.099297624247245E+05,      /* I =*** */
(PID.TID 0000.0001)                 3.071366753786757E+05,      /* I =*** */
(PID.TID 0000.0001)                 3.042303595100670E+05,      /* I =*** */
(PID.TID 0000.0001)                 3.013180578167061E+05,      /* I =*** */
(PID.TID 0000.0001)                 2.985143016243727E+05,      /* I =*** */
(PID.TID 0000.0001)                 2.959369960765984E+05,      /* I =*** */
(PID.TID 0000.0001)                 2.937020375736682E+05,      /* I =*** */
(PID.TID 0000.0001)                 2.919164736866363E+05,      /* I =*** */
(PID.TID 0000.0001)                 2.906706565369413E+05,      /* I =*** */
(PID.TID 0000.0001)                 2.900303768613599E+05,      /* I =*** */
(PID.TID 0000.0001)                 2.599949918261881E+05,      /* I =*** */
(PID.TID 0000.0001)                 2.613928019944271E+05,      /* I =*** */
(PID.TID 0000.0001)                 2.640534701478141E+05,      /* I =*** */
(PID.TID 0000.0001)                 2.677421336598871E+05,      /* I =*** */
(PID.TID 0000.0001)                 2.721754665816094E+05,      /* I =*** */
(PID.TID 0000.0001)                 2.770677082849345E+05,      /* I =*** */
(PID.TID 0000.0001)                 2.821597581064359E+05,      /* I =*** */
(PID.TID 0000.0001)                 2.872314003732699E+05,      /* I =*** */
(PID.TID 0000.0001)                 2.921023023566398E+05,      /* I =*** */
(PID.TID 0000.0001)                 2.966276260863712E+05,      /* I =*** */
(PID.TID 0000.0001)                 3.006921489793282E+05,      /* I =*** */
(PID.TID 0000.0001)                 3.042048495507529E+05,      /* I =*** */
(PID.TID 0000.0001)                 3.070946554358933E+05,      /* I =*** */
(PID.TID 0000.0001)                 3.093074100109176E+05,      /* I =*** */
(PID.TID 0000.0001)                 3.108038593575396E+05,      /* I =*** */
(PID.TID 0000.0001)     2 @  3.115584474900804E+05,             /* I =***:*** */
(PID.TID 0000.0001)                 3.108038593575396E+05,      /* I =*** */
(PID.TID 0000.0001)                 3.093074100109176E+05,      /* I =*** */
(PID.TID 0000.0001)                 3.070946554358933E+05,      /* I =*** */
(PID.TID 0000.0001)                 3.042048495507529E+05,      /* I =*** */
(PID.TID 0000.0001)                 3.006921489793282E+05,      /* I =*** */
(PID.TID 0000.0001)                 2.966276260863712E+05,      /* I =*** */
(PID.TID 0000.0001)                 2.921023023566398E+05,      /* I =*** */
(PID.TID 0000.0001)                 2.872314003732699E+05,      /* I =*** */
(PID.TID 0000.0001)                 2.821597581064359E+05,      /* I =*** */
(PID.TID 0000.0001)                 2.770677082849345E+05,      /* I =*** */
(PID.TID 0000.0001)                 2.721754665816094E+05,      /* I =*** */
(PID.TID 0000.0001)                 2.677421336598871E+05,      /* I =*** */
(PID.TID 0000.0001)                 2.640534701478141E+05,      /* I =*** */
(PID.TID 0000.0001)                 2.613928019944271E+05,      /* I =*** */
(PID.TID 0000.0001)                 2.599949918261881E+05,      /* I =*** */
(PID.TID 0000.0001)                 2.048868197919576E+05,      /* I =*** */
(PID.TID 0000.0001)                 2.098871716285330E+05,      /* I =*** */
(PID.TID 0000.0001)                 2.183552757714993E+05,      /* I =*** */
(PID.TID 0000.0001)                 2.284883157115105E+05,      /* I =*** */
(PID.TID 0000.0001)                 2.390259833947229E+05,      /* I =*** */
(PID.TID 0000.0001)                 2.492723940965486E+05,      /* I =*** */
(PID.TID 0000.0001)                 2.588804175347912E+05,      /* I =*** */
(PID.TID 0000.0001)                 2.676821762100863E+05,      /* I =*** */
(PID.TID 0000.0001)                 2.755951392607118E+05,      /* I =*** */
(PID.TID 0000.0001)                 2.825758551959615E+05,      /* I =*** */
(PID.TID 0000.0001)                 2.885983146955540E+05,      /* I =*** */
(PID.TID 0000.0001)                 2.936442966455010E+05,      /* I =*** */
(PID.TID 0000.0001)                 2.976994255899062E+05,      /* I =*** */
(PID.TID 0000.0001)                 3.007518957476707E+05,      /* I =*** */
(PID.TID 0000.0001)                 3.027923688443646E+05,      /* I =*** */
(PID.TID 0000.0001)     2 @  3.038143430929827E+05,             /* I =***:*** */
(PID.TID 0000.0001)                 3.027923688443646E+05,      /* I =*** */
(PID.TID 0000.0001)                 3.007518957476707E+05,      /* I =*** */
(PID.TID 0000.0001)                 2.976994255899062E+05,      /* I =*** */
(PID.TID 0000.0001)                 2.936442966455010E+05,      /* I =*** */
(PID.TID 0000.0001)                 2.885983146955540E+05,      /* I =*** */
(PID.TID 0000.0001)                 2.825758551959615E+05,      /* I =*** */
(PID.TID 0000.0001)                 2.755951392607118E+05,      /* I =*** */
(PID.TID 0000.0001)                 2.676821762100863E+05,      /* I =*** */
(PID.TID 0000.0001)                 2.588804175347912E+05,      /* I =*** */
(PID.TID 0000.0001)                 2.492723940965486E+05,      /* I =*** */
(PID.TID 0000.0001)                 2.390259833947229E+05,      /* I =*** */
(PID.TID 0000.0001)                 2.284883157115105E+05,      /* I =*** */
(PID.TID 0000.0001)                 2.183552757714993E+05,      /* I =*** */
(PID.TID 0000.0001)                 2.098871716285330E+05,      /* I =*** */
(PID.TID 0000.0001)                 2.048868197919576E+05       /* I =*** */
(PID.TID 0000.0001)     ;
(PID.TID 0000.0001) dxF =  /* dxF(1,:,1,:) ( m - cartesian, degrees - spherical ) */
(PID.TID 0000.0001)                 1.202082051331828E+05,      /* J =  1 */
(PID.TID 0000.0001)                 1.572908084538706E+05,      /* J =  2 */
(PID.TID 0000.0001)                 1.840412227747703E+05,      /* J =  3 */
(PID.TID 0000.0001)                 2.048868197919576E+05       /* J =  4 */
(PID.TID 0000.0001)     ;
(PID.TID 0000.0001) dyF =  /* dyF(:,1,:,1) ( m - cartesian, degrees - spherical ) */
(PID.TID 0000.0001)                 1.202082051331828E+05,      /* I =  1 */
(PID.TID 0000.0001)                 1.572908084538706E+05,      /* I =  2 */
(PID.TID 0000.0001)                 1.840412227747703E+05,      /* I =  3 */
(PID.TID 0000.0001)                 2.048868197919576E+05,      /* I =  4 */
(PID.TID 0000.0001)                 2.220405216043041E+05,      /* I =  5 */
(PID.TID 0000.0001)                 2.365892017348392E+05,      /* I =  6 */
(PID.TID 0000.0001)                 2.491250781852558E+05,      /* I =  7 */
(PID.TID 0000.0001)                 2.599949918261881E+05,      /* I =  8 */
(PID.TID 0000.0001)                 2.694110134598581E+05,      /* I =  9 */
(PID.TID 0000.0001)                 2.775055554645015E+05,      /* I = 10 */
(PID.TID 0000.0001)                 2.843615645344775E+05,      /* I = 11 */
(PID.TID 0000.0001)                 2.900303768613599E+05,      /* I = 12 */
(PID.TID 0000.0001)                 2.945429307892709E+05,      /* I = 13 */
(PID.TID 0000.0001)                 2.979171143158405E+05,      /* I = 14 */
(PID.TID 0000.0001)                 3.001626787528886E+05,      /* I = 15 */
(PID.TID 0000.0001)     2 @  3.012844832048790E+05,             /* I = 16: 17 */
(PID.TID 0000.0001)                 3.001626787528886E+05,      /* I = 18 */
(PID.TID 0000.0001)                 2.979171143158405E+05,      /* I = 19 */
(PID.TID 0000.0001)                 2.945429307892709E+05,      /* I = 20 */
(PID.TID 0000.0001)                 2.900303768613599E+05,      /* I = 21 */
(PID.TID 0000.0001)                 2.843615645344775E+05,      /* I = 22 */
(PID.TID 0000.0001)                 2.775055554645015E+05,      /* I = 23 */
(PID.TID 0000.0001)                 2.694110134598581E+05,      /* I = 24 */
(PID.TID 0000.0001)                 2.599949918261881E+05,      /* I = 25 */
(PID.TID 0000.0001)                 2.491250781852558E+05,      /* I = 26 */
(PID.TID 0000.0001)                 2.365892017348392E+05,      /* I = 27 */
(PID.TID 0000.0001)                 2.220405216043041E+05,      /* I = 28 */
(PID.TID 0000.0001)                 2.048868197919576E+05,      /* I = 29 */
(PID.TID 0000.0001)                 1.840412227747703E+05,      /* I = 30 */
(PID.TID 0000.0001)                 1.572908084538706E+05,      /* I = 31 */
(PID.TID 0000.0001)                 1.202082051331828E+05,      /* I = 32 */
(PID.TID 0000.0001)                 2.218350349844185E+05,      /* I = 33 */
(PID.TID 0000.0001)                 2.252425816700941E+05,      /* I = 34 */
(PID.TID 0000.0001)                 2.313145542636707E+05,      /* I = 35 */
(PID.TID 0000.0001)                 2.390259833947229E+05,      /* I = 36 */
(PID.TID 0000.0001)                 2.474852428920030E+05,      /* I = 37 */
(PID.TID 0000.0001)                 2.560677095518683E+05,      /* I = 38 */
(PID.TID 0000.0001)                 2.643782447232400E+05,      /* I = 39 */
(PID.TID 0000.0001)                 2.721754665816094E+05,      /* I = 40 */
(PID.TID 0000.0001)                 2.793107344025355E+05,      /* I = 41 */
(PID.TID 0000.0001)                 2.856890576580387E+05,      /* I = 42 */
(PID.TID 0000.0001)                 2.912463692481456E+05,      /* I = 43 */
(PID.TID 0000.0001)                 2.959369960765984E+05,      /* I = 44 */
(PID.TID 0000.0001)                 2.997270416250828E+05,      /* I = 45 */
(PID.TID 0000.0001)                 3.025910706172647E+05,      /* I = 46 */
(PID.TID 0000.0001)                 3.045105775939250E+05,      /* I = 47 */
(PID.TID 0000.0001)     2 @  3.054733694195115E+05,             /* I = 48: 49 */
(PID.TID 0000.0001)                 3.045105775939250E+05,      /* I = 50 */
(PID.TID 0000.0001)                 3.025910706172647E+05,      /* I = 51 */
(PID.TID 0000.0001)                 2.997270416250828E+05,      /* I = 52 */
(PID.TID 0000.0001)                 2.959369960765984E+05,      /* I = 53 */
(PID.TID 0000.0001)                 2.912463692481456E+05,      /* I = 54 */
(PID.TID 0000.0001)                 2.856890576580387E+05,      /* I = 55 */
(PID.TID 0000.0001)                 2.793107344025355E+05,      /* I = 56 */
(PID.TID 0000.0001)                 2.721754665816094E+05,      /* I = 57 */
(PID.TID 0000.0001)                 2.643782447232400E+05,      /* I = 58 */
(PID.TID 0000.0001)                 2.560677095518683E+05,      /* I = 59 */
(PID.TID 0000.0001)                 2.474852428920030E+05,      /* I = 60 */
(PID.TID 0000.0001)                 2.390259833947229E+05,      /* I = 61 */
(PID.TID 0000.0001)                 2.313145542636707E+05,      /* I = 62 */
(PID.TID 0000.0001)                 2.252425816700941E+05,      /* I = 63 */
(PID.TID 0000.0001)                 2.218350349844185E+05,      /* I = 64 */
(PID.TID 0000.0001)                 2.693210245495156E+05,      /* I = 65 */
(PID.TID 0000.0001)                 2.704391598996622E+05,      /* I = 66 */
(PID.TID 0000.0001)                 2.725847234797694E+05,      /* I = 67 */
(PID.TID 0000.0001)                 2.755951392607118E+05,      /* I = 68 */
(PID.TID 0000.0001)                 2.792653032262129E+05,      /* I = 69 */
(PID.TID 0000.0001)                 2.833766693795861E+05,      /* I = 70 */
(PID.TID 0000.0001)                 2.877189074801222E+05,      /* I = 71 */
(PID.TID 0000.0001)                 2.921023023566398E+05,      /* I = 72 */
(PID.TID 0000.0001)                 2.963626409677758E+05,      /* I = 73 */
(PID.TID 0000.0001)                 3.003614422517500E+05,      /* I = 74 */
(PID.TID 0000.0001)                 3.039839792389949E+05,      /* I = 75 */
(PID.TID 0000.0001)                 3.071366753786757E+05,      /* I = 76 */
(PID.TID 0000.0001)                 3.097446928597904E+05,      /* I = 77 */
(PID.TID 0000.0001)                 3.117500277099095E+05,      /* I = 78 */
(PID.TID 0000.0001)                 3.131101540263444E+05,      /* I = 79 */
(PID.TID 0000.0001)     2 @  3.137971415338805E+05,             /* I = 80: 81 */
(PID.TID 0000.0001)                 3.131101540263444E+05,      /* I = 82 */
(PID.TID 0000.0001)                 3.117500277099095E+05,      /* I = 83 */
(PID.TID 0000.0001)                 3.097446928597904E+05,      /* I = 84 */
(PID.TID 0000.0001)                 3.071366753786757E+05,      /* I = 85 */
(PID.TID 0000.0001)                 3.039839792389949E+05,      /* I = 86 */
(PID.TID 0000.0001)                 3.003614422517500E+05,      /* I = 87 */
(PID.TID 0000.0001)                 2.963626409677758E+05,      /* I = 88 */
(PID.TID 0000.0001)                 2.921023023566398E+05,      /* I = 89 */
(PID.TID 0000.0001)                 2.877189074801222E+05,      /* I = 90 */
(PID.TID 0000.0001)                 2.833766693795861E+05,      /* I = 91 */
(PID.TID 0000.0001)                 2.792653032262129E+05,      /* I = 92 */
(PID.TID 0000.0001)                 2.755951392607118E+05,      /* I = 93 */
(PID.TID 0000.0001)                 2.725847234797694E+05,      /* I = 94 */
(PID.TID 0000.0001)                 2.704391598996622E+05,      /* I = 95 */
(PID.TID 0000.0001)                 2.693210245495156E+05,      /* I = 96 */
(PID.TID 0000.0001)                 2.944742915095688E+05,      /* I = 97 */
(PID.TID 0000.0001)                 2.950346424290142E+05,      /* I = 98 */
(PID.TID 0000.0001)                 2.961274597460219E+05,      /* I = 99 */
(PID.TID 0000.0001)                 2.976994255899062E+05,      /* I =100 */
(PID.TID 0000.0001)                 2.996761960679202E+05,      /* I =101 */
(PID.TID 0000.0001)                 3.019679590969354E+05,      /* I =102 */
(PID.TID 0000.0001)                 3.044752932796004E+05,      /* I =103 */
(PID.TID 0000.0001)                 3.070946554358933E+05,      /* I =104 */
(PID.TID 0000.0001)                 3.097231021673243E+05,      /* I =105 */
(PID.TID 0000.0001)                 3.122621129269982E+05,      /* I =106 */
(PID.TID 0000.0001)                 3.146205630894776E+05,      /* I =107 */
(PID.TID 0000.0001)                 3.167169842566044E+05,      /* I =108 */
(PID.TID 0000.0001)                 3.184812669057048E+05,      /* I =109 */
(PID.TID 0000.0001)                 3.198559380583477E+05,      /* I =110 */
(PID.TID 0000.0001)                 3.207971094843819E+05,      /* I =111 */
(PID.TID 0000.0001)     2 @  3.212751560265627E+05,             /* I =112:113 */
(PID.TID 0000.0001)                 3.207971094843819E+05,      /* I =114 */
(PID.TID 0000.0001)                 3.198559380583477E+05,      /* I =115 */
(PID.TID 0000.0001)                 3.184812669057048E+05,      /* I =116 */
(PID.TID 0000.0001)                 3.167169842566044E+05,      /* I =117 */
(PID.TID 0000.0001)                 3.146205630894776E+05,      /* I =118 */
(PID.TID 0000.0001)                 3.122621129269982E+05,      /* I =119 */
(PID.TID 0000.0001)                 3.097231021673243E+05,      /* I =120 */
(PID.TID 0000.0001)                 3.070946554358933E+05,      /* I =121 */
(PID.TID 0000.0001)                 3.044752932796004E+05,      /* I =122 */
(PID.TID 0000.0001)                 3.019679590969354E+05,      /* I =123 */
(PID.TID 0000.0001)                 2.996761960679202E+05,      /* I =124 */
(PID.TID 0000.0001)                 2.976994255899062E+05,      /* I =125 */
(PID.TID 0000.0001)                 2.961274597460219E+05,      /* I =126 */
(PID.TID 0000.0001)                 2.950346424290142E+05,      /* I =127 */
(PID.TID 0000.0001)                 2.944742915095688E+05,      /* I =128 */
(PID.TID 0000.0001)                 3.012190981969055E+05,      /* I =129 */
(PID.TID 0000.0001)                 3.016675528553907E+05,      /* I =130 */
(PID.TID 0000.0001)                 3.025451404065074E+05,      /* I =131 */
(PID.TID 0000.0001)                 3.038143430929827E+05,      /* I =132 */
(PID.TID 0000.0001)                 3.054215712079756E+05,      /* I =133 */
(PID.TID 0000.0001)                 3.073000594641912E+05,      /* I =134 */
(PID.TID 0000.0001)                 3.093732589453273E+05,      /* I =135 */
(PID.TID 0000.0001)                 3.115584474900804E+05,      /* I =136 */
(PID.TID 0000.0001)                 3.137703202065625E+05,      /* I =137 */
(PID.TID 0000.0001)                 3.159243816151009E+05,      /* I =138 */
(PID.TID 0000.0001)                 3.179400237154126E+05,      /* I =139 */
(PID.TID 0000.0001)                 3.197432274745630E+05,      /* I =140 */
(PID.TID 0000.0001)                 3.212688630823077E+05,      /* I =141 */
(PID.TID 0000.0001)                 3.224625867238719E+05,      /* I =142 */
(PID.TID 0000.0001)                 3.232823418193404E+05,      /* I =143 */
(PID.TID 0000.0001)     2 @  3.236994750082736E+05,             /* I =144:145 */
(PID.TID 0000.0001)                 3.232823418193404E+05,      /* I =146 */
(PID.TID 0000.0001)                 3.224625867238719E+05,      /* I =147 */
(PID.TID 0000.0001)                 3.212688630823077E+05,      /* I =148 */
(PID.TID 0000.0001)                 3.197432274745630E+05,      /* I =149 */
(PID.TID 0000.0001)                 3.179400237154126E+05,      /* I =150 */
(PID.TID 0000.0001)                 3.159243816151009E+05,      /* I =151 */
(PID.TID 0000.0001)                 3.137703202065625E+05,      /* I =152 */
(PID.TID 0000.0001)                 3.115584474900804E+05,      /* I =153 */
(PID.TID 0000.0001)                 3.093732589453273E+05,      /* I =154 */
(PID.TID 0000.0001)                 3.073000594641912E+05,      /* I =155 */
(PID.TID 0000.0001)                 3.054215712079756E+05,      /* I =156 */
(PID.TID 0000.0001)                 3.038143430929827E+05,      /* I =157 */
(PID.TID 0000.0001)                 3.025451404065074E+05,      /* I =158 */
(PID.TID 0000.0001)                 3.016675528553907E+05,      /* I =159 */
(PID.TID 0000.0001)                 3.012190981969055E+05,      /* I =160 */
(PID.TID 0000.0001)                 2.899590699694043E+05,      /* I =161 */
(PID.TID 0000.0001)                 2.906018212562565E+05,      /* I =162 */
(PID.TID 0000.0001)                 2.918523157404994E+05,      /* I =163 */
(PID.TID 0000.0001)                 2.936442966455010E+05,      /* I =164 */
(PID.TID 0000.0001)                 2.958868484465457E+05,      /* I =165 */
(PID.TID 0000.0001)                 2.984723635656422E+05,      /* I =166 */
(PID.TID 0000.0001)                 3.012844593281750E+05,      /* I =167 */
(PID.TID 0000.0001)                 3.042048495507529E+05,      /* I =168 */
(PID.TID 0000.0001)                 3.071187272280302E+05,      /* I =169 */
(PID.TID 0000.0001)                 3.099186614517519E+05,      /* I =170 */
(PID.TID 0000.0001)                 3.125072629909937E+05,      /* I =171 */
(PID.TID 0000.0001)                 3.147989491998900E+05,      /* I =172 */
(PID.TID 0000.0001)                 3.167211063730236E+05,      /* I =173 */
(PID.TID 0000.0001)                 3.182148701114423E+05,      /* I =174 */
(PID.TID 0000.0001)                 3.192356635510707E+05,      /* I =175 */
(PID.TID 0000.0001)     2 @  3.197535693737994E+05,             /* I =176:177 */
(PID.TID 0000.0001)                 3.192356635510707E+05,      /* I =178 */
(PID.TID 0000.0001)                 3.182148701114423E+05,      /* I =179 */
(PID.TID 0000.0001)                 3.167211063730236E+05,      /* I =180 */
(PID.TID 0000.0001)                 3.147989491998900E+05,      /* I =181 */
(PID.TID 0000.0001)                 3.125072629909937E+05,      /* I =182 */
(PID.TID 0000.0001)                 3.099186614517519E+05,      /* I =183 */
(PID.TID 0000.0001)                 3.071187272280302E+05,      /* I =184 */
(PID.TID 0000.0001)                 3.042048495507529E+05,      /* I =185 */
(PID.TID 0000.0001)                 3.012844593281750E+05,      /* I =186 */
(PID.TID 0000.0001)                 2.984723635656422E+05,      /* I =187 */
(PID.TID 0000.0001)                 2.958868484465457E+05,      /* I =188 */
(PID.TID 0000.0001)                 2.936442966455010E+05,      /* I =189 */
(PID.TID 0000.0001)                 2.918523157404994E+05,      /* I =190 */
(PID.TID 0000.0001)                 2.906018212562565E+05,      /* I =191 */
(PID.TID 0000.0001)                 2.899590699694043E+05,      /* I =192 */
(PID.TID 0000.0001)                 2.598919724358304E+05,      /* I =193 */
(PID.TID 0000.0001)                 2.612987785497329E+05,      /* I =194 */
(PID.TID 0000.0001)                 2.639749816177823E+05,      /* I =195 */
(PID.TID 0000.0001)                 2.676821762100863E+05,      /* I =196 */
(PID.TID 0000.0001)                 2.721339566565751E+05,      /* I =197 */
(PID.TID 0000.0001)                 2.770426972267964E+05,      /* I =198 */
(PID.TID 0000.0001)                 2.821485797298442E+05,      /* I =199 */
(PID.TID 0000.0001)                 2.872314003732699E+05,      /* I =200 */
(PID.TID 0000.0001)                 2.921111682925773E+05,      /* I =201 */
(PID.TID 0000.0001)                 2.966434639461947E+05,      /* I =202 */
(PID.TID 0000.0001)                 3.007134384377001E+05,      /* I =203 */
(PID.TID 0000.0001)                 3.042303595100670E+05,      /* I =204 */
(PID.TID 0000.0001)                 3.071233596908996E+05,      /* I =205 */
(PID.TID 0000.0001)                 3.093384179901085E+05,      /* I =206 */
(PID.TID 0000.0001)                 3.108363645263049E+05,      /* I =207 */
(PID.TID 0000.0001)     2 @  3.115916488673079E+05,             /* I =208:209 */
(PID.TID 0000.0001)                 3.108363645263049E+05,      /* I =210 */
(PID.TID 0000.0001)                 3.093384179901085E+05,      /* I =211 */
(PID.TID 0000.0001)                 3.071233596908996E+05,      /* I =212 */
(PID.TID 0000.0001)                 3.042303595100670E+05,      /* I =213 */
(PID.TID 0000.0001)                 3.007134384377001E+05,      /* I =214 */
(PID.TID 0000.0001)                 2.966434639461947E+05,      /* I =215 */
(PID.TID 0000.0001)                 2.921111682925773E+05,      /* I =216 */
(PID.TID 0000.0001)                 2.872314003732699E+05,      /* I =217 */
(PID.TID 0000.0001)                 2.821485797298442E+05,      /* I =218 */
(PID.TID 0000.0001)                 2.770426972267964E+05,      /* I =219 */
(PID.TID 0000.0001)                 2.721339566565751E+05,      /* I =220 */
(PID.TID 0000.0001)                 2.676821762100863E+05,      /* I =221 */
(PID.TID 0000.0001)                 2.639749816177823E+05,      /* I =222 */
(PID.TID 0000.0001)                 2.612987785497329E+05,      /* I =223 */
(PID.TID 0000.0001)                 2.598919724358304E+05,      /* I =224 */
(PID.TID 0000.0001)                 2.045883481718707E+05,      /* I =225 */
(PID.TID 0000.0001)                 2.096966946839077E+05,      /* I =226 */
(PID.TID 0000.0001)                 2.182813094203258E+05,      /* I =227 */
(PID.TID 0000.0001)                 2.284883157115105E+05,      /* I =228 */
(PID.TID 0000.0001)                 2.390627990003637E+05,      /* I =229 */
(PID.TID 0000.0001)                 2.493250570174761E+05,      /* I =230 */
(PID.TID 0000.0001)                 2.589389036316242E+05,      /* I =231 */
(PID.TID 0000.0001)                 2.677421336598871E+05,      /* I =232 */
(PID.TID 0000.0001)                 2.756548836326629E+05,      /* I =233 */
(PID.TID 0000.0001)                 2.826348871452257E+05,      /* I =234 */
(PID.TID 0000.0001)                 2.886566228869043E+05,      /* I =235 */
(PID.TID 0000.0001)                 2.937020375736682E+05,      /* I =236 */
(PID.TID 0000.0001)                 2.977567820180416E+05,      /* I =237 */
(PID.TID 0000.0001)                 3.008090206974398E+05,      /* I =238 */
(PID.TID 0000.0001)                 3.028493713733726E+05,      /* I =239 */
(PID.TID 0000.0001)     2 @  3.038712499122208E+05,             /* I =240:241 */
(PID.TID 0000.0001)                 3.028493713733726E+05,      /* I =242 */
(PID.TID 0000.0001)                 3.008090206974398E+05,      /* I =243 */
(PID.TID 0000.0001)                 2.977567820180416E+05,      /* I =244 */
(PID.TID 0000.0001)                 2.937020375736682E+05,      /* I =245 */
(PID.TID 0000.0001)                 2.886566228869043E+05,      /* I =246 */
(PID.TID 0000.0001)                 2.826348871452257E+05,      /* I =247 */
(PID.TID 0000.0001)                 2.756548836326629E+05,      /* I =248 */
(PID.TID 0000.0001)                 2.677421336598871E+05,      /* I =249 */
(PID.TID 0000.0001)                 2.589389036316242E+05,      /* I =250 */
(PID.TID 0000.0001)                 2.493250570174761E+05,      /* I =251 */
(PID.TID 0000.0001)                 2.390627990003637E+05,      /* I =252 */
(PID.TID 0000.0001)                 2.284883157115105E+05,      /* I =253 */
(PID.TID 0000.0001)                 2.182813094203258E+05,      /* I =254 */
(PID.TID 0000.0001)                 2.096966946839077E+05,      /* I =255 */
(PID.TID 0000.0001)                 2.045883481718707E+05,      /* I =256 */
(PID.TID 0000.0001)                 1.202082051331828E+05,      /* I =257 */
(PID.TID 0000.0001)                 1.572908084538706E+05,      /* I =258 */
(PID.TID 0000.0001)                 1.840412227747703E+05,      /* I =259 */
(PID.TID 0000.0001)                 2.048868197919576E+05,      /* I =260 */
(PID.TID 0000.0001)                 2.220405216043041E+05,      /* I =261 */
(PID.TID 0000.0001)                 2.365892017348392E+05,      /* I =262 */
(PID.TID 0000.0001)                 2.491250781852558E+05,      /* I =263 */
(PID.TID 0000.0001)                 2.599949918261881E+05,      /* I =264 */
(PID.TID 0000.0001)                 2.694110134598581E+05,      /* I =265 */
(PID.TID 0000.0001)                 2.775055554645015E+05,      /* I =266 */
(PID.TID 0000.0001)                 2.843615645344775E+05,      /* I =267 */
(PID.TID 0000.0001)                 2.900303768613599E+05,      /* I =268 */
(PID.TID 0000.0001)                 2.945429307892709E+05,      /* I =269 */
(PID.TID 0000.0001)                 2.979171143158405E+05,      /* I =270 */
(PID.TID 0000.0001)                 3.001626787528886E+05,      /* I =271 */
(PID.TID 0000.0001)     2 @  3.012844832048790E+05,             /* I =272:273 */
(PID.TID 0000.0001)                 3.001626787528886E+05,      /* I =274 */
(PID.TID 0000.0001)                 2.979171143158405E+05,      /* I =275 */
(PID.TID 0000.0001)                 2.945429307892709E+05,      /* I =276 */
(PID.TID 0000.0001)                 2.900303768613599E+05,      /* I =277 */
(PID.TID 0000.0001)                 2.843615645344775E+05,      /* I =278 */
(PID.TID 0000.0001)                 2.775055554645015E+05,      /* I =279 */
(PID.TID 0000.0001)                 2.694110134598581E+05,      /* I =280 */
(PID.TID 0000.0001)                 2.599949918261881E+05,      /* I =281 */
(PID.TID 0000.0001)                 2.491250781852558E+05,      /* I =282 */
(PID.TID 0000.0001)                 2.365892017348392E+05,      /* I =283 */
(PID.TID 0000.0001)                 2.220405216043041E+05,      /* I =284 */
(PID.TID 0000.0001)                 2.048868197919576E+05,      /* I =285 */
(PID.TID 0000.0001)                 1.840412227747703E+05,      /* I =286 */
(PID.TID 0000.0001)                 1.572908084538706E+05,      /* I =287 */
(PID.TID 0000.0001)                 1.202082051331828E+05,      /* I =288 */
(PID.TID 0000.0001)                 2.218350349844185E+05,      /* I =289 */
(PID.TID 0000.0001)                 2.252425816700941E+05,      /* I =290 */
(PID.TID 0000.0001)                 2.313145542636707E+05,      /* I =291 */
(PID.TID 0000.0001)                 2.390259833947229E+05,      /* I =292 */
(PID.TID 0000.0001)                 2.474852428920030E+05,      /* I =293 */
(PID.TID 0000.0001)                 2.560677095518683E+05,      /* I =294 */
(PID.TID 0000.0001)                 2.643782447232400E+05,      /* I =295 */
(PID.TID 0000.0001)                 2.721754665816094E+05,      /* I =296 */
(PID.TID 0000.0001)                 2.793107344025355E+05,      /* I =297 */
(PID.TID 0000.0001)                 2.856890576580387E+05,      /* I =298 */
(PID.TID 0000.0001)                 2.912463692481456E+05,      /* I =299 */
(PID.TID 0000.0001)                 2.959369960765984E+05,      /* I =300 */
(PID.TID 0000.0001)                 2.997270416250828E+05,      /* I =301 */
(PID.TID 0000.0001)                 3.025910706172647E+05,      /* I =302 */
(PID.TID 0000.0001)                 3.045105775939250E+05,      /* I =303 */
(PID.TID 0000.0001)     2 @  3.054733694195115E+05,             /* I =304:305 */
(PID.TID 0000.0001)                 3.045105775939250E+05,      /* I =306 */
(PID.TID 0000.0001)                 3.025910706172647E+05,      /* I =307 */
(PID.TID 0000.0001)                 2.997270416250828E+05,      /* I =308 */
(PID.TID 0000.0001)                 2.959369960765984E+05,      /* I =309 */
(PID.TID 0000.0001)                 2.912463692481456E+05,      /* I =310 */
(PID.TID 0000.0001)                 2.856890576580387E+05,      /* I =311 */
(PID.TID 0000.0001)                 2.793107344025355E+05,      /* I =312 */
(PID.TID 0000.0001)                 2.721754665816094E+05,      /* I =313 */
(PID.TID 0000.0001)                 2.643782447232400E+05,      /* I =314 */
(PID.TID 0000.0001)                 2.560677095518683E+05,      /* I =315 */
(PID.TID 0000.0001)                 2.474852428920030E+05,      /* I =316 */
(PID.TID 0000.0001)                 2.390259833947229E+05,      /* I =317 */
(PID.TID 0000.0001)                 2.313145542636707E+05,      /* I =318 */
(PID.TID 0000.0001)                 2.252425816700941E+05,      /* I =319 */
(PID.TID 0000.0001)                 2.218350349844185E+05,      /* I =320 */
(PID.TID 0000.0001)                 2.693210245495156E+05,      /* I =321 */
(PID.TID 0000.0001)                 2.704391598996622E+05,      /* I =322 */
(PID.TID 0000.0001)                 2.725847234797694E+05,      /* I =323 */
(PID.TID 0000.0001)                 2.755951392607118E+05,      /* I =324 */
(PID.TID 0000.0001)                 2.792653032262129E+05,      /* I =325 */
(PID.TID 0000.0001)                 2.833766693795861E+05,      /* I =326 */
(PID.TID 0000.0001)                 2.877189074801222E+05,      /* I =327 */
(PID.TID 0000.0001)                 2.921023023566398E+05,      /* I =328 */
(PID.TID 0000.0001)                 2.963626409677758E+05,      /* I =329 */
(PID.TID 0000.0001)                 3.003614422517500E+05,      /* I =330 */
(PID.TID 0000.0001)                 3.039839792389949E+05,      /* I =331 */
(PID.TID 0000.0001)                 3.071366753786757E+05,      /* I =332 */
(PID.TID 0000.0001)                 3.097446928597904E+05,      /* I =333 */
(PID.TID 0000.0001)                 3.117500277099095E+05,      /* I =334 */
(PID.TID 0000.0001)                 3.131101540263444E+05,      /* I =335 */
(PID.TID 0000.0001)     2 @  3.137971415338805E+05,             /* I =336:337 */
(PID.TID 0000.0001)                 3.131101540263444E+05,      /* I =338 */
(PID.TID 0000.0001)                 3.117500277099095E+05,      /* I =339 */
(PID.TID 0000.0001)                 3.097446928597904E+05,      /* I =340 */
(PID.TID 0000.0001)                 3.071366753786757E+05,      /* I =341 */
(PID.TID 0000.0001)                 3.039839792389949E+05,      /* I =342 */
(PID.TID 0000.0001)                 3.003614422517500E+05,      /* I =343 */
(PID.TID 0000.0001)                 2.963626409677758E+05,      /* I =344 */
(PID.TID 0000.0001)                 2.921023023566398E+05,      /* I =345 */
(PID.TID 0000.0001)                 2.877189074801222E+05,      /* I =346 */
(PID.TID 0000.0001)                 2.833766693795861E+05,      /* I =347 */
(PID.TID 0000.0001)                 2.792653032262129E+05,      /* I =348 */
(PID.TID 0000.0001)                 2.755951392607118E+05,      /* I =349 */
(PID.TID 0000.0001)                 2.725847234797694E+05,      /* I =350 */
(PID.TID 0000.0001)                 2.704391598996622E+05,      /* I =351 */
(PID.TID 0000.0001)                 2.693210245495156E+05,      /* I =352 */
(PID.TID 0000.0001)                 2.944742915095688E+05,      /* I =353 */
(PID.TID 0000.0001)                 2.950346424290142E+05,      /* I =354 */
(PID.TID 0000.0001)                 2.961274597460219E+05,      /* I =355 */
(PID.TID 0000.0001)                 2.976994255899062E+05,      /* I =356 */
(PID.TID 0000.0001)                 2.996761960679202E+05,      /* I =357 */
(PID.TID 0000.0001)                 3.019679590969354E+05,      /* I =358 */
(PID.TID 0000.0001)                 3.044752932796004E+05,      /* I =359 */
(PID.TID 0000.0001)                 3.070946554358933E+05,      /* I =360 */
(PID.TID 0000.0001)                 3.097231021673243E+05,      /* I =361 */
(PID.TID 0000.0001)                 3.122621129269982E+05,      /* I =362 */
(PID.TID 0000.0001)                 3.146205630894776E+05,      /* I =363 */
(PID.TID 0000.0001)                 3.167169842566044E+05,      /* I =364 */
(PID.TID 0000.0001)                 3.184812669057048E+05,      /* I =365 */
(PID.TID 0000.0001)                 3.198559380583477E+05,      /* I =366 */
(PID.TID 0000.0001)                 3.207971094843819E+05,      /* I =367 */
(PID.TID 0000.0001)     2 @  3.212751560265627E+05,             /* I =368:369 */
(PID.TID 0000.0001)                 3.207971094843819E+05,      /* I =370 */
(PID.TID 0000.0001)                 3.198559380583477E+05,      /* I =371 */
(PID.TID 0000.0001)                 3.184812669057048E+05,      /* I =372 */
(PID.TID 0000.0001)                 3.167169842566044E+05,      /* I =373 */
(PID.TID 0000.0001)                 3.146205630894776E+05,      /* I =374 */
(PID.TID 0000.0001)                 3.122621129269982E+05,      /* I =375 */
(PID.TID 0000.0001)                 3.097231021673243E+05,      /* I =376 */
(PID.TID 0000.0001)                 3.070946554358933E+05,      /* I =377 */
(PID.TID 0000.0001)                 3.044752932796004E+05,      /* I =378 */
(PID.TID 0000.0001)                 3.019679590969354E+05,      /* I =379 */
(PID.TID 0000.0001)                 2.996761960679202E+05,      /* I =380 */
(PID.TID 0000.0001)                 2.976994255899062E+05,      /* I =381 */
(PID.TID 0000.0001)                 2.961274597460219E+05,      /* I =382 */
(PID.TID 0000.0001)                 2.950346424290142E+05,      /* I =383 */
(PID.TID 0000.0001)                 2.944742915095688E+05,      /* I =384 */
(PID.TID 0000.0001)                 3.012190981969055E+05,      /* I =385 */
(PID.TID 0000.0001)                 3.016675528553907E+05,      /* I =386 */
(PID.TID 0000.0001)                 3.025451404065074E+05,      /* I =387 */
(PID.TID 0000.0001)                 3.038143430929827E+05,      /* I =388 */
(PID.TID 0000.0001)                 3.054215712079756E+05,      /* I =389 */
(PID.TID 0000.0001)                 3.073000594641912E+05,      /* I =390 */
(PID.TID 0000.0001)                 3.093732589453273E+05,      /* I =391 */
(PID.TID 0000.0001)                 3.115584474900804E+05,      /* I =392 */
(PID.TID 0000.0001)                 3.137703202065625E+05,      /* I =393 */
(PID.TID 0000.0001)                 3.159243816151009E+05,      /* I =394 */
(PID.TID 0000.0001)                 3.179400237154126E+05,      /* I =395 */
(PID.TID 0000.0001)                 3.197432274745630E+05,      /* I =396 */
(PID.TID 0000.0001)                 3.212688630823077E+05,      /* I =397 */
(PID.TID 0000.0001)                 3.224625867238719E+05,      /* I =398 */
(PID.TID 0000.0001)                 3.232823418193404E+05,      /* I =399 */
(PID.TID 0000.0001)     2 @  3.236994750082736E+05,             /* I =400:401 */
(PID.TID 0000.0001)                 3.232823418193404E+05,      /* I =402 */
(PID.TID 0000.0001)                 3.224625867238719E+05,      /* I =403 */
(PID.TID 0000.0001)                 3.212688630823077E+05,      /* I =404 */
(PID.TID 0000.0001)                 3.197432274745630E+05,      /* I =405 */
(PID.TID 0000.0001)                 3.179400237154126E+05,      /* I =406 */
(PID.TID 0000.0001)                 3.159243816151009E+05,      /* I =407 */
(PID.TID 0000.0001)                 3.137703202065625E+05,      /* I =408 */
(PID.TID 0000.0001)                 3.115584474900804E+05,      /* I =409 */
(PID.TID 0000.0001)                 3.093732589453273E+05,      /* I =410 */
(PID.TID 0000.0001)                 3.073000594641912E+05,      /* I =411 */
(PID.TID 0000.0001)                 3.054215712079756E+05,      /* I =412 */
(PID.TID 0000.0001)                 3.038143430929827E+05,      /* I =413 */
(PID.TID 0000.0001)                 3.025451404065074E+05,      /* I =414 */
(PID.TID 0000.0001)                 3.016675528553907E+05,      /* I =415 */
(PID.TID 0000.0001)                 3.012190981969055E+05,      /* I =416 */
(PID.TID 0000.0001)                 2.899590699694043E+05,      /* I =417 */
(PID.TID 0000.0001)                 2.906018212562565E+05,      /* I =418 */
(PID.TID 0000.0001)                 2.918523157404994E+05,      /* I =419 */
(PID.TID 0000.0001)                 2.936442966455010E+05,      /* I =420 */
(PID.TID 0000.0001)                 2.958868484465457E+05,      /* I =421 */
(PID.TID 0000.0001)                 2.984723635656422E+05,      /* I =422 */
(PID.TID 0000.0001)                 3.012844593281750E+05,      /* I =423 */
(PID.TID 0000.0001)                 3.042048495507529E+05,      /* I =424 */
(PID.TID 0000.0001)                 3.071187272280302E+05,      /* I =425 */
(PID.TID 0000.0001)                 3.099186614517519E+05,      /* I =426 */
(PID.TID 0000.0001)                 3.125072629909937E+05,      /* I =427 */
(PID.TID 0000.0001)                 3.147989491998900E+05,      /* I =428 */
(PID.TID 0000.0001)                 3.167211063730236E+05,      /* I =429 */
(PID.TID 0000.0001)                 3.182148701114423E+05,      /* I =430 */
(PID.TID 0000.0001)                 3.192356635510707E+05,      /* I =431 */
(PID.TID 0000.0001)     2 @  3.197535693737994E+05,             /* I =432:433 */
(PID.TID 0000.0001)                 3.192356635510707E+05,      /* I =434 */
(PID.TID 0000.0001)                 3.182148701114423E+05,      /* I =435 */
(PID.TID 0000.0001)                 3.167211063730236E+05,      /* I =436 */
(PID.TID 0000.0001)                 3.147989491998900E+05,      /* I =437 */
(PID.TID 0000.0001)                 3.125072629909937E+05,      /* I =438 */
(PID.TID 0000.0001)                 3.099186614517519E+05,      /* I =439 */
(PID.TID 0000.0001)                 3.071187272280302E+05,      /* I =440 */
(PID.TID 0000.0001)                 3.042048495507529E+05,      /* I =441 */
(PID.TID 0000.0001)                 3.012844593281750E+05,      /* I =442 */
(PID.TID 0000.0001)                 2.984723635656422E+05,      /* I =443 */
(PID.TID 0000.0001)                 2.958868484465457E+05,      /* I =444 */
(PID.TID 0000.0001)                 2.936442966455010E+05,      /* I =445 */
(PID.TID 0000.0001)                 2.918523157404994E+05,      /* I =446 */
(PID.TID 0000.0001)                 2.906018212562565E+05,      /* I =447 */
(PID.TID 0000.0001)                 2.899590699694043E+05,      /* I =448 */
(PID.TID 0000.0001)                 2.598919724358304E+05,      /* I =449 */
(PID.TID 0000.0001)                 2.612987785497329E+05,      /* I =450 */
(PID.TID 0000.0001)                 2.639749816177823E+05,      /* I =451 */
(PID.TID 0000.0001)                 2.676821762100863E+05,      /* I =452 */
(PID.TID 0000.0001)                 2.721339566565751E+05,      /* I =453 */
(PID.TID 0000.0001)                 2.770426972267964E+05,      /* I =454 */
(PID.TID 0000.0001)                 2.821485797298442E+05,      /* I =455 */
(PID.TID 0000.0001)                 2.872314003732699E+05,      /* I =456 */
(PID.TID 0000.0001)                 2.921111682925773E+05,      /* I =457 */
(PID.TID 0000.0001)                 2.966434639461947E+05,      /* I =458 */
(PID.TID 0000.0001)                 3.007134384377001E+05,      /* I =459 */
(PID.TID 0000.0001)                 3.042303595100670E+05,      /* I =460 */
(PID.TID 0000.0001)                 3.071233596908996E+05,      /* I =461 */
(PID.TID 0000.0001)                 3.093384179901085E+05,      /* I =462 */
(PID.TID 0000.0001)                 3.108363645263049E+05,      /* I =463 */
(PID.TID 0000.0001)     2 @  3.115916488673079E+05,             /* I =464:465 */
(PID.TID 0000.0001)                 3.108363645263049E+05,      /* I =466 */
(PID.TID 0000.0001)                 3.093384179901085E+05,      /* I =467 */
(PID.TID 0000.0001)                 3.071233596908996E+05,      /* I =468 */
(PID.TID 0000.0001)                 3.042303595100670E+05,      /* I =469 */
(PID.TID 0000.0001)                 3.007134384377001E+05,      /* I =470 */
(PID.TID 0000.0001)                 2.966434639461947E+05,      /* I =471 */
(PID.TID 0000.0001)                 2.921111682925773E+05,      /* I =472 */
(PID.TID 0000.0001)                 2.872314003732699E+05,      /* I =473 */
(PID.TID 0000.0001)                 2.821485797298442E+05,      /* I =474 */
(PID.TID 0000.0001)                 2.770426972267964E+05,      /* I =475 */
(PID.TID 0000.0001)                 2.721339566565751E+05,      /* I =476 */
(PID.TID 0000.0001)                 2.676821762100863E+05,      /* I =477 */
(PID.TID 0000.0001)                 2.639749816177823E+05,      /* I =478 */
(PID.TID 0000.0001)                 2.612987785497329E+05,      /* I =479 */
(PID.TID 0000.0001)                 2.598919724358304E+05,      /* I =480 */
(PID.TID 0000.0001)                 2.045883481718707E+05,      /* I =481 */
(PID.TID 0000.0001)                 2.096966946839077E+05,      /* I =482 */
(PID.TID 0000.0001)                 2.182813094203258E+05,      /* I =483 */
(PID.TID 0000.0001)                 2.284883157115105E+05,      /* I =484 */
(PID.TID 0000.0001)                 2.390627990003637E+05,      /* I =485 */
(PID.TID 0000.0001)                 2.493250570174761E+05,      /* I =486 */
(PID.TID 0000.0001)                 2.589389036316242E+05,      /* I =487 */
(PID.TID 0000.0001)                 2.677421336598871E+05,      /* I =488 */
(PID.TID 0000.0001)                 2.756548836326629E+05,      /* I =489 */
(PID.TID 0000.0001)                 2.826348871452257E+05,      /* I =490 */
(PID.TID 0000.0001)                 2.886566228869043E+05,      /* I =491 */
(PID.TID 0000.0001)                 2.937020375736682E+05,      /* I =492 */
(PID.TID 0000.0001)                 2.977567820180416E+05,      /* I =493 */
(PID.TID 0000.0001)                 3.008090206974398E+05,      /* I =494 */
(PID.TID 0000.0001)                 3.028493713733726E+05,      /* I =495 */
(PID.TID 0000.0001)     2 @  3.038712499122208E+05,             /* I =496:497 */
(PID.TID 0000.0001)                 3.028493713733726E+05,      /* I =498 */
(PID.TID 0000.0001)                 3.008090206974398E+05,      /* I =499 */
(PID.TID 0000.0001)                 2.977567820180416E+05,      /* I =500 */
(PID.TID 0000.0001)                 2.937020375736682E+05,      /* I =501 */
(PID.TID 0000.0001)                 2.886566228869043E+05,      /* I =502 */
(PID.TID 0000.0001)                 2.826348871452257E+05,      /* I =503 */
(PID.TID 0000.0001)                 2.756548836326629E+05,      /* I =504 */
(PID.TID 0000.0001)                 2.677421336598871E+05,      /* I =505 */
(PID.TID 0000.0001)                 2.589389036316242E+05,      /* I =506 */
(PID.TID 0000.0001)                 2.493250570174761E+05,      /* I =507 */
(PID.TID 0000.0001)                 2.390627990003637E+05,      /* I =508 */
(PID.TID 0000.0001)                 2.284883157115105E+05,      /* I =509 */
(PID.TID 0000.0001)                 2.182813094203258E+05,      /* I =510 */
(PID.TID 0000.0001)                 2.096966946839077E+05,      /* I =511 */
(PID.TID 0000.0001)                 2.045883481718707E+05,      /* I =512 */
(PID.TID 0000.0001)                 1.202082051331828E+05,      /* I =513 */
(PID.TID 0000.0001)                 1.572908084538706E+05,      /* I =514 */
(PID.TID 0000.0001)                 1.840412227747703E+05,      /* I =515 */
(PID.TID 0000.0001)                 2.048868197919576E+05,      /* I =516 */
(PID.TID 0000.0001)                 2.220405216043041E+05,      /* I =517 */
(PID.TID 0000.0001)                 2.365892017348392E+05,      /* I =518 */
(PID.TID 0000.0001)                 2.491250781852558E+05,      /* I =519 */
(PID.TID 0000.0001)                 2.599949918261881E+05,      /* I =520 */
(PID.TID 0000.0001)                 2.694110134598581E+05,      /* I =521 */
(PID.TID 0000.0001)                 2.775055554645015E+05,      /* I =522 */
(PID.TID 0000.0001)                 2.843615645344775E+05,      /* I =523 */
(PID.TID 0000.0001)                 2.900303768613599E+05,      /* I =524 */
(PID.TID 0000.0001)                 2.945429307892709E+05,      /* I =525 */
(PID.TID 0000.0001)                 2.979171143158405E+05,      /* I =526 */
(PID.TID 0000.0001)                 3.001626787528886E+05,      /* I =527 */
(PID.TID 0000.0001)     2 @  3.012844832048790E+05,             /* I =528:529 */
(PID.TID 0000.0001)                 3.001626787528886E+05,      /* I =530 */
(PID.TID 0000.0001)                 2.979171143158405E+05,      /* I =531 */
(PID.TID 0000.0001)                 2.945429307892709E+05,      /* I =532 */
(PID.TID 0000.0001)                 2.900303768613599E+05,      /* I =533 */
(PID.TID 0000.0001)                 2.843615645344775E+05,      /* I =534 */
(PID.TID 0000.0001)                 2.775055554645015E+05,      /* I =535 */
(PID.TID 0000.0001)                 2.694110134598581E+05,      /* I =536 */
(PID.TID 0000.0001)                 2.599949918261881E+05,      /* I =537 */
(PID.TID 0000.0001)                 2.491250781852558E+05,      /* I =538 */
(PID.TID 0000.0001)                 2.365892017348392E+05,      /* I =539 */
(PID.TID 0000.0001)                 2.220405216043041E+05,      /* I =540 */
(PID.TID 0000.0001)                 2.048868197919576E+05,      /* I =541 */
(PID.TID 0000.0001)                 1.840412227747703E+05,      /* I =542 */
(PID.TID 0000.0001)                 1.572908084538706E+05,      /* I =543 */
(PID.TID 0000.0001)                 1.202082051331828E+05,      /* I =544 */
(PID.TID 0000.0001)                 2.218350349844185E+05,      /* I =545 */
(PID.TID 0000.0001)                 2.252425816700941E+05,      /* I =546 */
(PID.TID 0000.0001)                 2.313145542636707E+05,      /* I =547 */
(PID.TID 0000.0001)                 2.390259833947229E+05,      /* I =548 */
(PID.TID 0000.0001)                 2.474852428920030E+05,      /* I =549 */
(PID.TID 0000.0001)                 2.560677095518683E+05,      /* I =550 */
(PID.TID 0000.0001)                 2.643782447232400E+05,      /* I =551 */
(PID.TID 0000.0001)                 2.721754665816094E+05,      /* I =552 */
(PID.TID 0000.0001)                 2.793107344025355E+05,      /* I =553 */
(PID.TID 0000.0001)                 2.856890576580387E+05,      /* I =554 */
(PID.TID 0000.0001)                 2.912463692481456E+05,      /* I =555 */
(PID.TID 0000.0001)                 2.959369960765984E+05,      /* I =556 */
(PID.TID 0000.0001)                 2.997270416250828E+05,      /* I =557 */
(PID.TID 0000.0001)                 3.025910706172647E+05,      /* I =558 */
(PID.TID 0000.0001)                 3.045105775939250E+05,      /* I =559 */
(PID.TID 0000.0001)     2 @  3.054733694195115E+05,             /* I =560:561 */
(PID.TID 0000.0001)                 3.045105775939250E+05,      /* I =562 */
(PID.TID 0000.0001)                 3.025910706172647E+05,      /* I =563 */
(PID.TID 0000.0001)                 2.997270416250828E+05,      /* I =564 */
(PID.TID 0000.0001)                 2.959369960765984E+05,      /* I =565 */
(PID.TID 0000.0001)                 2.912463692481456E+05,      /* I =566 */
(PID.TID 0000.0001)                 2.856890576580387E+05,      /* I =567 */
(PID.TID 0000.0001)                 2.793107344025355E+05,      /* I =568 */
(PID.TID 0000.0001)                 2.721754665816094E+05,      /* I =569 */
(PID.TID 0000.0001)                 2.643782447232400E+05,      /* I =570 */
(PID.TID 0000.0001)                 2.560677095518683E+05,      /* I =571 */
(PID.TID 0000.0001)                 2.474852428920030E+05,      /* I =572 */
(PID.TID 0000.0001)                 2.390259833947229E+05,      /* I =573 */
(PID.TID 0000.0001)                 2.313145542636707E+05,      /* I =574 */
(PID.TID 0000.0001)                 2.252425816700941E+05,      /* I =575 */
(PID.TID 0000.0001)                 2.218350349844185E+05,      /* I =576 */
(PID.TID 0000.0001)                 2.693210245495156E+05,      /* I =577 */
(PID.TID 0000.0001)                 2.704391598996622E+05,      /* I =578 */
(PID.TID 0000.0001)                 2.725847234797694E+05,      /* I =579 */
(PID.TID 0000.0001)                 2.755951392607118E+05,      /* I =580 */
(PID.TID 0000.0001)                 2.792653032262129E+05,      /* I =581 */
(PID.TID 0000.0001)                 2.833766693795861E+05,      /* I =582 */
(PID.TID 0000.0001)                 2.877189074801222E+05,      /* I =583 */
(PID.TID 0000.0001)                 2.921023023566398E+05,      /* I =584 */
(PID.TID 0000.0001)                 2.963626409677758E+05,      /* I =585 */
(PID.TID 0000.0001)                 3.003614422517500E+05,      /* I =586 */
(PID.TID 0000.0001)                 3.039839792389949E+05,      /* I =587 */
(PID.TID 0000.0001)                 3.071366753786757E+05,      /* I =588 */
(PID.TID 0000.0001)                 3.097446928597904E+05,      /* I =589 */
(PID.TID 0000.0001)                 3.117500277099095E+05,      /* I =590 */
(PID.TID 0000.0001)                 3.131101540263444E+05,      /* I =591 */
(PID.TID 0000.0001)     2 @  3.137971415338805E+05,             /* I =592:593 */
(PID.TID 0000.0001)                 3.131101540263444E+05,      /* I =594 */
(PID.TID 0000.0001)                 3.117500277099095E+05,      /* I =595 */
(PID.TID 0000.0001)                 3.097446928597904E+05,      /* I =596 */
(PID.TID 0000.0001)                 3.071366753786757E+05,      /* I =597 */
(PID.TID 0000.0001)                 3.039839792389949E+05,      /* I =598 */
(PID.TID 0000.0001)                 3.003614422517500E+05,      /* I =599 */
(PID.TID 0000.0001)                 2.963626409677758E+05,      /* I =600 */
(PID.TID 0000.0001)                 2.921023023566398E+05,      /* I =601 */
(PID.TID 0000.0001)                 2.877189074801222E+05,      /* I =602 */
(PID.TID 0000.0001)                 2.833766693795861E+05,      /* I =603 */
(PID.TID 0000.0001)                 2.792653032262129E+05,      /* I =604 */
(PID.TID 0000.0001)                 2.755951392607118E+05,      /* I =605 */
(PID.TID 0000.0001)                 2.725847234797694E+05,      /* I =606 */
(PID.TID 0000.0001)                 2.704391598996622E+05,      /* I =607 */
(PID.TID 0000.0001)                 2.693210245495156E+05,      /* I =608 */
(PID.TID 0000.0001)                 2.944742915095688E+05,      /* I =609 */
(PID.TID 0000.0001)                 2.950346424290142E+05,      /* I =610 */
(PID.TID 0000.0001)                 2.961274597460219E+05,      /* I =611 */
(PID.TID 0000.0001)                 2.976994255899062E+05,      /* I =612 */
(PID.TID 0000.0001)                 2.996761960679202E+05,      /* I =613 */
(PID.TID 0000.0001)                 3.019679590969354E+05,      /* I =614 */
(PID.TID 0000.0001)                 3.044752932796004E+05,      /* I =615 */
(PID.TID 0000.0001)                 3.070946554358933E+05,      /* I =616 */
(PID.TID 0000.0001)                 3.097231021673243E+05,      /* I =617 */
(PID.TID 0000.0001)                 3.122621129269982E+05,      /* I =618 */
(PID.TID 0000.0001)                 3.146205630894776E+05,      /* I =619 */
(PID.TID 0000.0001)                 3.167169842566044E+05,      /* I =620 */
(PID.TID 0000.0001)                 3.184812669057048E+05,      /* I =621 */
(PID.TID 0000.0001)                 3.198559380583477E+05,      /* I =622 */
(PID.TID 0000.0001)                 3.207971094843819E+05,      /* I =623 */
(PID.TID 0000.0001)     2 @  3.212751560265627E+05,             /* I =624:625 */
(PID.TID 0000.0001)                 3.207971094843819E+05,      /* I =626 */
(PID.TID 0000.0001)                 3.198559380583477E+05,      /* I =627 */
(PID.TID 0000.0001)                 3.184812669057048E+05,      /* I =628 */
(PID.TID 0000.0001)                 3.167169842566044E+05,      /* I =629 */
(PID.TID 0000.0001)                 3.146205630894776E+05,      /* I =630 */
(PID.TID 0000.0001)                 3.122621129269982E+05,      /* I =631 */
(PID.TID 0000.0001)                 3.097231021673243E+05,      /* I =632 */
(PID.TID 0000.0001)                 3.070946554358933E+05,      /* I =633 */
(PID.TID 0000.0001)                 3.044752932796004E+05,      /* I =634 */
(PID.TID 0000.0001)                 3.019679590969354E+05,      /* I =635 */
(PID.TID 0000.0001)                 2.996761960679202E+05,      /* I =636 */
(PID.TID 0000.0001)                 2.976994255899062E+05,      /* I =637 */
(PID.TID 0000.0001)                 2.961274597460219E+05,      /* I =638 */
(PID.TID 0000.0001)                 2.950346424290142E+05,      /* I =639 */
(PID.TID 0000.0001)                 2.944742915095688E+05,      /* I =640 */
(PID.TID 0000.0001)                 3.012190981969055E+05,      /* I =641 */
(PID.TID 0000.0001)                 3.016675528553907E+05,      /* I =642 */
(PID.TID 0000.0001)                 3.025451404065074E+05,      /* I =643 */
(PID.TID 0000.0001)                 3.038143430929827E+05,      /* I =644 */
(PID.TID 0000.0001)                 3.054215712079756E+05,      /* I =645 */
(PID.TID 0000.0001)                 3.073000594641912E+05,      /* I =646 */
(PID.TID 0000.0001)                 3.093732589453273E+05,      /* I =647 */
(PID.TID 0000.0001)                 3.115584474900804E+05,      /* I =648 */
(PID.TID 0000.0001)                 3.137703202065625E+05,      /* I =649 */
(PID.TID 0000.0001)                 3.159243816151009E+05,      /* I =650 */
(PID.TID 0000.0001)                 3.179400237154126E+05,      /* I =651 */
(PID.TID 0000.0001)                 3.197432274745630E+05,      /* I =652 */
(PID.TID 0000.0001)                 3.212688630823077E+05,      /* I =653 */
(PID.TID 0000.0001)                 3.224625867238719E+05,      /* I =654 */
(PID.TID 0000.0001)                 3.232823418193404E+05,      /* I =655 */
(PID.TID 0000.0001)     2 @  3.236994750082736E+05,             /* I =656:657 */
(PID.TID 0000.0001)                 3.232823418193404E+05,      /* I =658 */
(PID.TID 0000.0001)                 3.224625867238719E+05,      /* I =659 */
(PID.TID 0000.0001)                 3.212688630823077E+05,      /* I =660 */
(PID.TID 0000.0001)                 3.197432274745630E+05,      /* I =661 */
(PID.TID 0000.0001)                 3.179400237154126E+05,      /* I =662 */
(PID.TID 0000.0001)                 3.159243816151009E+05,      /* I =663 */
(PID.TID 0000.0001)                 3.137703202065625E+05,      /* I =664 */
(PID.TID 0000.0001)                 3.115584474900804E+05,      /* I =665 */
(PID.TID 0000.0001)                 3.093732589453273E+05,      /* I =666 */
(PID.TID 0000.0001)                 3.073000594641912E+05,      /* I =667 */
(PID.TID 0000.0001)                 3.054215712079756E+05,      /* I =668 */
(PID.TID 0000.0001)                 3.038143430929827E+05,      /* I =669 */
(PID.TID 0000.0001)                 3.025451404065074E+05,      /* I =670 */
(PID.TID 0000.0001)                 3.016675528553907E+05,      /* I =671 */
(PID.TID 0000.0001)                 3.012190981969055E+05,      /* I =672 */
(PID.TID 0000.0001)                 2.899590699694043E+05,      /* I =673 */
(PID.TID 0000.0001)                 2.906018212562565E+05,      /* I =674 */
(PID.TID 0000.0001)                 2.918523157404994E+05,      /* I =675 */
(PID.TID 0000.0001)                 2.936442966455010E+05,      /* I =676 */
(PID.TID 0000.0001)                 2.958868484465457E+05,      /* I =677 */
(PID.TID 0000.0001)                 2.984723635656422E+05,      /* I =678 */
(PID.TID 0000.0001)                 3.012844593281750E+05,      /* I =679 */
(PID.TID 0000.0001)                 3.042048495507529E+05,      /* I =680 */
(PID.TID 0000.0001)                 3.071187272280302E+05,      /* I =681 */
(PID.TID 0000.0001)                 3.099186614517519E+05,      /* I =682 */
(PID.TID 0000.0001)                 3.125072629909937E+05,      /* I =683 */
(PID.TID 0000.0001)                 3.147989491998900E+05,      /* I =684 */
(PID.TID 0000.0001)                 3.167211063730236E+05,      /* I =685 */
(PID.TID 0000.0001)                 3.182148701114423E+05,      /* I =686 */
(PID.TID 0000.0001)                 3.192356635510707E+05,      /* I =687 */
(PID.TID 0000.0001)     2 @  3.197535693737994E+05,             /* I =688:689 */
(PID.TID 0000.0001)                 3.192356635510707E+05,      /* I =690 */
(PID.TID 0000.0001)                 3.182148701114423E+05,      /* I =691 */
(PID.TID 0000.0001)                 3.167211063730236E+05,      /* I =692 */
(PID.TID 0000.0001)                 3.147989491998900E+05,      /* I =693 */
(PID.TID 0000.0001)                 3.125072629909937E+05,      /* I =694 */
(PID.TID 0000.0001)                 3.099186614517519E+05,      /* I =695 */
(PID.TID 0000.0001)                 3.071187272280302E+05,      /* I =696 */
(PID.TID 0000.0001)                 3.042048495507529E+05,      /* I =697 */
(PID.TID 0000.0001)                 3.012844593281750E+05,      /* I =698 */
(PID.TID 0000.0001)                 2.984723635656422E+05,      /* I =699 */
(PID.TID 0000.0001)                 2.958868484465457E+05,      /* I =700 */
(PID.TID 0000.0001)                 2.936442966455010E+05,      /* I =701 */
(PID.TID 0000.0001)                 2.918523157404994E+05,      /* I =702 */
(PID.TID 0000.0001)                 2.906018212562565E+05,      /* I =703 */
(PID.TID 0000.0001)                 2.899590699694043E+05,      /* I =704 */
(PID.TID 0000.0001)                 2.598919724358304E+05,      /* I =705 */
(PID.TID 0000.0001)                 2.612987785497329E+05,      /* I =706 */
(PID.TID 0000.0001)                 2.639749816177823E+05,      /* I =707 */
(PID.TID 0000.0001)                 2.676821762100863E+05,      /* I =708 */
(PID.TID 0000.0001)                 2.721339566565751E+05,      /* I =709 */
(PID.TID 0000.0001)                 2.770426972267964E+05,      /* I =710 */
(PID.TID 0000.0001)                 2.821485797298442E+05,      /* I =711 */
(PID.TID 0000.0001)                 2.872314003732699E+05,      /* I =712 */
(PID.TID 0000.0001)                 2.921111682925773E+05,      /* I =713 */
(PID.TID 0000.0001)                 2.966434639461947E+05,      /* I =714 */
(PID.TID 0000.0001)                 3.007134384377001E+05,      /* I =715 */
(PID.TID 0000.0001)                 3.042303595100670E+05,      /* I =716 */
(PID.TID 0000.0001)                 3.071233596908996E+05,      /* I =717 */
(PID.TID 0000.0001)                 3.093384179901085E+05,      /* I =718 */
(PID.TID 0000.0001)                 3.108363645263049E+05,      /* I =719 */
(PID.TID 0000.0001)     2 @  3.115916488673079E+05,             /* I =720:721 */
(PID.TID 0000.0001)                 3.108363645263049E+05,      /* I =722 */
(PID.TID 0000.0001)                 3.093384179901085E+05,      /* I =723 */
(PID.TID 0000.0001)                 3.071233596908996E+05,      /* I =724 */
(PID.TID 0000.0001)                 3.042303595100670E+05,      /* I =725 */
(PID.TID 0000.0001)                 3.007134384377001E+05,      /* I =726 */
(PID.TID 0000.0001)                 2.966434639461947E+05,      /* I =727 */
(PID.TID 0000.0001)                 2.921111682925773E+05,      /* I =728 */
(PID.TID 0000.0001)                 2.872314003732699E+05,      /* I =729 */
(PID.TID 0000.0001)                 2.821485797298442E+05,      /* I =730 */
(PID.TID 0000.0001)                 2.770426972267964E+05,      /* I =731 */
(PID.TID 0000.0001)                 2.721339566565751E+05,      /* I =732 */
(PID.TID 0000.0001)                 2.676821762100863E+05,      /* I =733 */
(PID.TID 0000.0001)                 2.639749816177823E+05,      /* I =734 */
(PID.TID 0000.0001)                 2.612987785497329E+05,      /* I =735 */
(PID.TID 0000.0001)                 2.598919724358304E+05,      /* I =736 */
(PID.TID 0000.0001)                 2.045883481718707E+05,      /* I =737 */
(PID.TID 0000.0001)                 2.096966946839077E+05,      /* I =738 */
(PID.TID 0000.0001)                 2.182813094203258E+05,      /* I =739 */
(PID.TID 0000.0001)                 2.284883157115105E+05,      /* I =740 */
(PID.TID 0000.0001)                 2.390627990003637E+05,      /* I =741 */
(PID.TID 0000.0001)                 2.493250570174761E+05,      /* I =742 */
(PID.TID 0000.0001)                 2.589389036316242E+05,      /* I =743 */
(PID.TID 0000.0001)                 2.677421336598871E+05,      /* I =744 */
(PID.TID 0000.0001)                 2.756548836326629E+05,      /* I =745 */
(PID.TID 0000.0001)                 2.826348871452257E+05,      /* I =746 */
(PID.TID 0000.0001)                 2.886566228869043E+05,      /* I =747 */
(PID.TID 0000.0001)                 2.937020375736682E+05,      /* I =748 */
(PID.TID 0000.0001)                 2.977567820180416E+05,      /* I =749 */
(PID.TID 0000.0001)                 3.008090206974398E+05,      /* I =750 */
(PID.TID 0000.0001)                 3.028493713733726E+05,      /* I =751 */
(PID.TID 0000.0001)     2 @  3.038712499122208E+05,             /* I =752:753 */
(PID.TID 0000.0001)                 3.028493713733726E+05,      /* I =754 */
(PID.TID 0000.0001)                 3.008090206974398E+05,      /* I =755 */
(PID.TID 0000.0001)                 2.977567820180416E+05,      /* I =756 */
(PID.TID 0000.0001)                 2.937020375736682E+05,      /* I =757 */
(PID.TID 0000.0001)                 2.886566228869043E+05,      /* I =758 */
(PID.TID 0000.0001)                 2.826348871452257E+05,      /* I =759 */
(PID.TID 0000.0001)                 2.756548836326629E+05,      /* I =760 */
(PID.TID 0000.0001)                 2.677421336598871E+05,      /* I =761 */
(PID.TID 0000.0001)                 2.589389036316242E+05,      /* I =762 */
(PID.TID 0000.0001)                 2.493250570174761E+05,      /* I =763 */
(PID.TID 0000.0001)                 2.390627990003637E+05,      /* I =764 */
(PID.TID 0000.0001)                 2.284883157115105E+05,      /* I =765 */
(PID.TID 0000.0001)                 2.182813094203258E+05,      /* I =766 */
(PID.TID 0000.0001)                 2.096966946839077E+05,      /* I =767 */
(PID.TID 0000.0001)                 2.045883481718707E+05,      /* I =768 */
(PID.TID 0000.0001)                 1.202082051331828E+05,      /* I =769 */
(PID.TID 0000.0001)                 1.572908084538706E+05,      /* I =770 */
(PID.TID 0000.0001)                 1.840412227747703E+05,      /* I =771 */
(PID.TID 0000.0001)                 2.048868197919576E+05,      /* I =772 */
(PID.TID 0000.0001)                 2.220405216043041E+05,      /* I =773 */
(PID.TID 0000.0001)                 2.365892017348392E+05,      /* I =774 */
(PID.TID 0000.0001)                 2.491250781852558E+05,      /* I =775 */
(PID.TID 0000.0001)                 2.599949918261881E+05,      /* I =776 */
(PID.TID 0000.0001)                 2.694110134598581E+05,      /* I =777 */
(PID.TID 0000.0001)                 2.775055554645015E+05,      /* I =778 */
(PID.TID 0000.0001)                 2.843615645344775E+05,      /* I =779 */
(PID.TID 0000.0001)                 2.900303768613599E+05,      /* I =780 */
(PID.TID 0000.0001)                 2.945429307892709E+05,      /* I =781 */
(PID.TID 0000.0001)                 2.979171143158405E+05,      /* I =782 */
(PID.TID 0000.0001)                 3.001626787528886E+05,      /* I =783 */
(PID.TID 0000.0001)     2 @  3.012844832048790E+05,             /* I =784:785 */
(PID.TID 0000.0001)                 3.001626787528886E+05,      /* I =786 */
(PID.TID 0000.0001)                 2.979171143158405E+05,      /* I =787 */
(PID.TID 0000.0001)                 2.945429307892709E+05,      /* I =788 */
(PID.TID 0000.0001)                 2.900303768613599E+05,      /* I =789 */
(PID.TID 0000.0001)                 2.843615645344775E+05,      /* I =790 */
(PID.TID 0000.0001)                 2.775055554645015E+05,      /* I =791 */
(PID.TID 0000.0001)                 2.694110134598581E+05,      /* I =792 */
(PID.TID 0000.0001)                 2.599949918261881E+05,      /* I =793 */
(PID.TID 0000.0001)                 2.491250781852558E+05,      /* I =794 */
(PID.TID 0000.0001)                 2.365892017348392E+05,      /* I =795 */
(PID.TID 0000.0001)                 2.220405216043041E+05,      /* I =796 */
(PID.TID 0000.0001)                 2.048868197919576E+05,      /* I =797 */
(PID.TID 0000.0001)                 1.840412227747703E+05,      /* I =798 */
(PID.TID 0000.0001)                 1.572908084538706E+05,      /* I =799 */
(PID.TID 0000.0001)                 1.202082051331828E+05,      /* I =800 */
(PID.TID 0000.0001)                 2.218350349844185E+05,      /* I =801 */
(PID.TID 0000.0001)                 2.252425816700941E+05,      /* I =802 */
(PID.TID 0000.0001)                 2.313145542636707E+05,      /* I =803 */
(PID.TID 0000.0001)                 2.390259833947229E+05,      /* I =804 */
(PID.TID 0000.0001)                 2.474852428920030E+05,      /* I =805 */
(PID.TID 0000.0001)                 2.560677095518683E+05,      /* I =806 */
(PID.TID 0000.0001)                 2.643782447232400E+05,      /* I =807 */
(PID.TID 0000.0001)                 2.721754665816094E+05,      /* I =808 */
(PID.TID 0000.0001)                 2.793107344025355E+05,      /* I =809 */
(PID.TID 0000.0001)                 2.856890576580387E+05,      /* I =810 */
(PID.TID 0000.0001)                 2.912463692481456E+05,      /* I =811 */
(PID.TID 0000.0001)                 2.959369960765984E+05,      /* I =812 */
(PID.TID 0000.0001)                 2.997270416250828E+05,      /* I =813 */
(PID.TID 0000.0001)                 3.025910706172647E+05,      /* I =814 */
(PID.TID 0000.0001)                 3.045105775939250E+05,      /* I =815 */
(PID.TID 0000.0001)     2 @  3.054733694195115E+05,             /* I =816:817 */
(PID.TID 0000.0001)                 3.045105775939250E+05,      /* I =818 */
(PID.TID 0000.0001)                 3.025910706172647E+05,      /* I =819 */
(PID.TID 0000.0001)                 2.997270416250828E+05,      /* I =820 */
(PID.TID 0000.0001)                 2.959369960765984E+05,      /* I =821 */
(PID.TID 0000.0001)                 2.912463692481456E+05,      /* I =822 */
(PID.TID 0000.0001)                 2.856890576580387E+05,      /* I =823 */
(PID.TID 0000.0001)                 2.793107344025355E+05,      /* I =824 */
(PID.TID 0000.0001)                 2.721754665816094E+05,      /* I =825 */
(PID.TID 0000.0001)                 2.643782447232400E+05,      /* I =826 */
(PID.TID 0000.0001)                 2.560677095518683E+05,      /* I =827 */
(PID.TID 0000.0001)                 2.474852428920030E+05,      /* I =828 */
(PID.TID 0000.0001)                 2.390259833947229E+05,      /* I =829 */
(PID.TID 0000.0001)                 2.313145542636707E+05,      /* I =830 */
(PID.TID 0000.0001)                 2.252425816700941E+05,      /* I =831 */
(PID.TID 0000.0001)                 2.218350349844185E+05,      /* I =832 */
(PID.TID 0000.0001)                 2.693210245495156E+05,      /* I =833 */
(PID.TID 0000.0001)                 2.704391598996622E+05,      /* I =834 */
(PID.TID 0000.0001)                 2.725847234797694E+05,      /* I =835 */
(PID.TID 0000.0001)                 2.755951392607118E+05,      /* I =836 */
(PID.TID 0000.0001)                 2.792653032262129E+05,      /* I =837 */
(PID.TID 0000.0001)                 2.833766693795861E+05,      /* I =838 */
(PID.TID 0000.0001)                 2.877189074801222E+05,      /* I =839 */
(PID.TID 0000.0001)                 2.921023023566398E+05,      /* I =840 */
(PID.TID 0000.0001)                 2.963626409677758E+05,      /* I =841 */
(PID.TID 0000.0001)                 3.003614422517500E+05,      /* I =842 */
(PID.TID 0000.0001)                 3.039839792389949E+05,      /* I =843 */
(PID.TID 0000.0001)                 3.071366753786757E+05,      /* I =844 */
(PID.TID 0000.0001)                 3.097446928597904E+05,      /* I =845 */
(PID.TID 0000.0001)                 3.117500277099095E+05,      /* I =846 */
(PID.TID 0000.0001)                 3.131101540263444E+05,      /* I =847 */
(PID.TID 0000.0001)     2 @  3.137971415338805E+05,             /* I =848:849 */
(PID.TID 0000.0001)                 3.131101540263444E+05,      /* I =850 */
(PID.TID 0000.0001)                 3.117500277099095E+05,      /* I =851 */
(PID.TID 0000.0001)                 3.097446928597904E+05,      /* I =852 */
(PID.TID 0000.0001)                 3.071366753786757E+05,      /* I =853 */
(PID.TID 0000.0001)                 3.039839792389949E+05,      /* I =854 */
(PID.TID 0000.0001)                 3.003614422517500E+05,      /* I =855 */
(PID.TID 0000.0001)                 2.963626409677758E+05,      /* I =856 */
(PID.TID 0000.0001)                 2.921023023566398E+05,      /* I =857 */
(PID.TID 0000.0001)                 2.877189074801222E+05,      /* I =858 */
(PID.TID 0000.0001)                 2.833766693795861E+05,      /* I =859 */
(PID.TID 0000.0001)                 2.792653032262129E+05,      /* I =860 */
(PID.TID 0000.0001)                 2.755951392607118E+05,      /* I =861 */
(PID.TID 0000.0001)                 2.725847234797694E+05,      /* I =862 */
(PID.TID 0000.0001)                 2.704391598996622E+05,      /* I =863 */
(PID.TID 0000.0001)                 2.693210245495156E+05,      /* I =864 */
(PID.TID 0000.0001)                 2.944742915095688E+05,      /* I =865 */
(PID.TID 0000.0001)                 2.950346424290142E+05,      /* I =866 */
(PID.TID 0000.0001)                 2.961274597460219E+05,      /* I =867 */
(PID.TID 0000.0001)                 2.976994255899062E+05,      /* I =868 */
(PID.TID 0000.0001)                 2.996761960679202E+05,      /* I =869 */
(PID.TID 0000.0001)                 3.019679590969354E+05,      /* I =870 */
(PID.TID 0000.0001)                 3.044752932796004E+05,      /* I =871 */
(PID.TID 0000.0001)                 3.070946554358933E+05,      /* I =872 */
(PID.TID 0000.0001)                 3.097231021673243E+05,      /* I =873 */
(PID.TID 0000.0001)                 3.122621129269982E+05,      /* I =874 */
(PID.TID 0000.0001)                 3.146205630894776E+05,      /* I =875 */
(PID.TID 0000.0001)                 3.167169842566044E+05,      /* I =876 */
(PID.TID 0000.0001)                 3.184812669057048E+05,      /* I =877 */
(PID.TID 0000.0001)                 3.198559380583477E+05,      /* I =878 */
(PID.TID 0000.0001)                 3.207971094843819E+05,      /* I =879 */
(PID.TID 0000.0001)     2 @  3.212751560265627E+05,             /* I =880:881 */
(PID.TID 0000.0001)                 3.207971094843819E+05,      /* I =882 */
(PID.TID 0000.0001)                 3.198559380583477E+05,      /* I =883 */
(PID.TID 0000.0001)                 3.184812669057048E+05,      /* I =884 */
(PID.TID 0000.0001)                 3.167169842566044E+05,      /* I =885 */
(PID.TID 0000.0001)                 3.146205630894776E+05,      /* I =886 */
(PID.TID 0000.0001)                 3.122621129269982E+05,      /* I =887 */
(PID.TID 0000.0001)                 3.097231021673243E+05,      /* I =888 */
(PID.TID 0000.0001)                 3.070946554358933E+05,      /* I =889 */
(PID.TID 0000.0001)                 3.044752932796004E+05,      /* I =890 */
(PID.TID 0000.0001)                 3.019679590969354E+05,      /* I =891 */
(PID.TID 0000.0001)                 2.996761960679202E+05,      /* I =892 */
(PID.TID 0000.0001)                 2.976994255899062E+05,      /* I =893 */
(PID.TID 0000.0001)                 2.961274597460219E+05,      /* I =894 */
(PID.TID 0000.0001)                 2.950346424290142E+05,      /* I =895 */
(PID.TID 0000.0001)                 2.944742915095688E+05,      /* I =896 */
(PID.TID 0000.0001)                 3.012190981969055E+05,      /* I =897 */
(PID.TID 0000.0001)                 3.016675528553907E+05,      /* I =898 */
(PID.TID 0000.0001)                 3.025451404065074E+05,      /* I =899 */
(PID.TID 0000.0001)                 3.038143430929827E+05,      /* I =900 */
(PID.TID 0000.0001)                 3.054215712079756E+05,      /* I =901 */
(PID.TID 0000.0001)                 3.073000594641912E+05,      /* I =902 */
(PID.TID 0000.0001)                 3.093732589453273E+05,      /* I =903 */
(PID.TID 0000.0001)                 3.115584474900804E+05,      /* I =904 */
(PID.TID 0000.0001)                 3.137703202065625E+05,      /* I =905 */
(PID.TID 0000.0001)                 3.159243816151009E+05,      /* I =906 */
(PID.TID 0000.0001)                 3.179400237154126E+05,      /* I =907 */
(PID.TID 0000.0001)                 3.197432274745630E+05,      /* I =908 */
(PID.TID 0000.0001)                 3.212688630823077E+05,      /* I =909 */
(PID.TID 0000.0001)                 3.224625867238719E+05,      /* I =910 */
(PID.TID 0000.0001)                 3.232823418193404E+05,      /* I =911 */
(PID.TID 0000.0001)     2 @  3.236994750082736E+05,             /* I =912:913 */
(PID.TID 0000.0001)                 3.232823418193404E+05,      /* I =914 */
(PID.TID 0000.0001)                 3.224625867238719E+05,      /* I =915 */
(PID.TID 0000.0001)                 3.212688630823077E+05,      /* I =916 */
(PID.TID 0000.0001)                 3.197432274745630E+05,      /* I =917 */
(PID.TID 0000.0001)                 3.179400237154126E+05,      /* I =918 */
(PID.TID 0000.0001)                 3.159243816151009E+05,      /* I =919 */
(PID.TID 0000.0001)                 3.137703202065625E+05,      /* I =920 */
(PID.TID 0000.0001)                 3.115584474900804E+05,      /* I =921 */
(PID.TID 0000.0001)                 3.093732589453273E+05,      /* I =922 */
(PID.TID 0000.0001)                 3.073000594641912E+05,      /* I =923 */
(PID.TID 0000.0001)                 3.054215712079756E+05,      /* I =924 */
(PID.TID 0000.0001)                 3.038143430929827E+05,      /* I =925 */
(PID.TID 0000.0001)                 3.025451404065074E+05,      /* I =926 */
(PID.TID 0000.0001)                 3.016675528553907E+05,      /* I =927 */
(PID.TID 0000.0001)                 3.012190981969055E+05,      /* I =928 */
(PID.TID 0000.0001)                 2.899590699694043E+05,      /* I =929 */
(PID.TID 0000.0001)                 2.906018212562565E+05,      /* I =930 */
(PID.TID 0000.0001)                 2.918523157404994E+05,      /* I =931 */
(PID.TID 0000.0001)                 2.936442966455010E+05,      /* I =932 */
(PID.TID 0000.0001)                 2.958868484465457E+05,      /* I =933 */
(PID.TID 0000.0001)                 2.984723635656422E+05,      /* I =934 */
(PID.TID 0000.0001)                 3.012844593281750E+05,      /* I =935 */
(PID.TID 0000.0001)                 3.042048495507529E+05,      /* I =936 */
(PID.TID 0000.0001)                 3.071187272280302E+05,      /* I =937 */
(PID.TID 0000.0001)                 3.099186614517519E+05,      /* I =938 */
(PID.TID 0000.0001)                 3.125072629909937E+05,      /* I =939 */
(PID.TID 0000.0001)                 3.147989491998900E+05,      /* I =940 */
(PID.TID 0000.0001)                 3.167211063730236E+05,      /* I =941 */
(PID.TID 0000.0001)                 3.182148701114423E+05,      /* I =942 */
(PID.TID 0000.0001)                 3.192356635510707E+05,      /* I =943 */
(PID.TID 0000.0001)     2 @  3.197535693737994E+05,             /* I =944:945 */
(PID.TID 0000.0001)                 3.192356635510707E+05,      /* I =946 */
(PID.TID 0000.0001)                 3.182148701114423E+05,      /* I =947 */
(PID.TID 0000.0001)                 3.167211063730236E+05,      /* I =948 */
(PID.TID 0000.0001)                 3.147989491998900E+05,      /* I =949 */
(PID.TID 0000.0001)                 3.125072629909937E+05,      /* I =950 */
(PID.TID 0000.0001)                 3.099186614517519E+05,      /* I =951 */
(PID.TID 0000.0001)                 3.071187272280302E+05,      /* I =952 */
(PID.TID 0000.0001)                 3.042048495507529E+05,      /* I =953 */
(PID.TID 0000.0001)                 3.012844593281750E+05,      /* I =954 */
(PID.TID 0000.0001)                 2.984723635656422E+05,      /* I =955 */
(PID.TID 0000.0001)                 2.958868484465457E+05,      /* I =956 */
(PID.TID 0000.0001)                 2.936442966455010E+05,      /* I =957 */
(PID.TID 0000.0001)                 2.918523157404994E+05,      /* I =958 */
(PID.TID 0000.0001)                 2.906018212562565E+05,      /* I =959 */
(PID.TID 0000.0001)                 2.899590699694043E+05,      /* I =960 */
(PID.TID 0000.0001)                 2.598919724358304E+05,      /* I =961 */
(PID.TID 0000.0001)                 2.612987785497329E+05,      /* I =962 */
(PID.TID 0000.0001)                 2.639749816177823E+05,      /* I =963 */
(PID.TID 0000.0001)                 2.676821762100863E+05,      /* I =964 */
(PID.TID 0000.0001)                 2.721339566565751E+05,      /* I =965 */
(PID.TID 0000.0001)                 2.770426972267964E+05,      /* I =966 */
(PID.TID 0000.0001)                 2.821485797298442E+05,      /* I =967 */
(PID.TID 0000.0001)                 2.872314003732699E+05,      /* I =968 */
(PID.TID 0000.0001)                 2.921111682925773E+05,      /* I =969 */
(PID.TID 0000.0001)                 2.966434639461947E+05,      /* I =970 */
(PID.TID 0000.0001)                 3.007134384377001E+05,      /* I =971 */
(PID.TID 0000.0001)                 3.042303595100670E+05,      /* I =972 */
(PID.TID 0000.0001)                 3.071233596908996E+05,      /* I =973 */
(PID.TID 0000.0001)                 3.093384179901085E+05,      /* I =974 */
(PID.TID 0000.0001)                 3.108363645263049E+05,      /* I =975 */
(PID.TID 0000.0001)     2 @  3.115916488673079E+05,             /* I =976:977 */
(PID.TID 0000.0001)                 3.108363645263049E+05,      /* I =978 */
(PID.TID 0000.0001)                 3.093384179901085E+05,      /* I =979 */
(PID.TID 0000.0001)                 3.071233596908996E+05,      /* I =980 */
(PID.TID 0000.0001)                 3.042303595100670E+05,      /* I =981 */
(PID.TID 0000.0001)                 3.007134384377001E+05,      /* I =982 */
(PID.TID 0000.0001)                 2.966434639461947E+05,      /* I =983 */
(PID.TID 0000.0001)                 2.921111682925773E+05,      /* I =984 */
(PID.TID 0000.0001)                 2.872314003732699E+05,      /* I =985 */
(PID.TID 0000.0001)                 2.821485797298442E+05,      /* I =986 */
(PID.TID 0000.0001)                 2.770426972267964E+05,      /* I =987 */
(PID.TID 0000.0001)                 2.721339566565751E+05,      /* I =988 */
(PID.TID 0000.0001)                 2.676821762100863E+05,      /* I =989 */
(PID.TID 0000.0001)                 2.639749816177823E+05,      /* I =990 */
(PID.TID 0000.0001)                 2.612987785497329E+05,      /* I =991 */
(PID.TID 0000.0001)                 2.598919724358304E+05,      /* I =992 */
(PID.TID 0000.0001)                 2.045883481718707E+05,      /* I =993 */
(PID.TID 0000.0001)                 2.096966946839077E+05,      /* I =994 */
(PID.TID 0000.0001)                 2.182813094203258E+05,      /* I =995 */
(PID.TID 0000.0001)                 2.284883157115105E+05,      /* I =996 */
(PID.TID 0000.0001)                 2.390627990003637E+05,      /* I =997 */
(PID.TID 0000.0001)                 2.493250570174761E+05,      /* I =998 */
(PID.TID 0000.0001)                 2.589389036316242E+05,      /* I =999 */
(PID.TID 0000.0001)                 2.677421336598871E+05,      /* I =*** */
(PID.TID 0000.0001)                 2.756548836326629E+05,      /* I =*** */
(PID.TID 0000.0001)                 2.826348871452257E+05,      /* I =*** */
(PID.TID 0000.0001)                 2.886566228869043E+05,      /* I =*** */
(PID.TID 0000.0001)                 2.937020375736682E+05,      /* I =*** */
(PID.TID 0000.0001)                 2.977567820180416E+05,      /* I =*** */
(PID.TID 0000.0001)                 3.008090206974398E+05,      /* I =*** */
(PID.TID 0000.0001)                 3.028493713733726E+05,      /* I =*** */
(PID.TID 0000.0001)     2 @  3.038712499122208E+05,             /* I =***:*** */
(PID.TID 0000.0001)                 3.028493713733726E+05,      /* I =*** */
(PID.TID 0000.0001)                 3.008090206974398E+05,      /* I =*** */
(PID.TID 0000.0001)                 2.977567820180416E+05,      /* I =*** */
(PID.TID 0000.0001)                 2.937020375736682E+05,      /* I =*** */
(PID.TID 0000.0001)                 2.886566228869043E+05,      /* I =*** */
(PID.TID 0000.0001)                 2.826348871452257E+05,      /* I =*** */
(PID.TID 0000.0001)                 2.756548836326629E+05,      /* I =*** */
(PID.TID 0000.0001)                 2.677421336598871E+05,      /* I =*** */
(PID.TID 0000.0001)                 2.589389036316242E+05,      /* I =*** */
(PID.TID 0000.0001)                 2.493250570174761E+05,      /* I =*** */
(PID.TID 0000.0001)                 2.390627990003637E+05,      /* I =*** */
(PID.TID 0000.0001)                 2.284883157115105E+05,      /* I =*** */
(PID.TID 0000.0001)                 2.182813094203258E+05,      /* I =*** */
(PID.TID 0000.0001)                 2.096966946839077E+05,      /* I =*** */
(PID.TID 0000.0001)                 2.045883481718707E+05,      /* I =*** */
(PID.TID 0000.0001)                 1.202082051331828E+05,      /* I =*** */
(PID.TID 0000.0001)                 1.572908084538706E+05,      /* I =*** */
(PID.TID 0000.0001)                 1.840412227747703E+05,      /* I =*** */
(PID.TID 0000.0001)                 2.048868197919576E+05,      /* I =*** */
(PID.TID 0000.0001)                 2.220405216043041E+05,      /* I =*** */
(PID.TID 0000.0001)                 2.365892017348392E+05,      /* I =*** */
(PID.TID 0000.0001)                 2.491250781852558E+05,      /* I =*** */
(PID.TID 0000.0001)                 2.599949918261881E+05,      /* I =*** */
(PID.TID 0000.0001)                 2.694110134598581E+05,      /* I =*** */
(PID.TID 0000.0001)                 2.775055554645015E+05,      /* I =*** */
(PID.TID 0000.0001)                 2.843615645344775E+05,      /* I =*** */
(PID.TID 0000.0001)                 2.900303768613599E+05,      /* I =*** */
(PID.TID 0000.0001)                 2.945429307892709E+05,      /* I =*** */
(PID.TID 0000.0001)                 2.979171143158405E+05,      /* I =*** */
(PID.TID 0000.0001)                 3.001626787528886E+05,      /* I =*** */
(PID.TID 0000.0001)     2 @  3.012844832048790E+05,             /* I =***:*** */
(PID.TID 0000.0001)                 3.001626787528886E+05,      /* I =*** */
(PID.TID 0000.0001)                 2.979171143158405E+05,      /* I =*** */
(PID.TID 0000.0001)                 2.945429307892709E+05,      /* I =*** */
(PID.TID 0000.0001)                 2.900303768613599E+05,      /* I =*** */
(PID.TID 0000.0001)                 2.843615645344775E+05,      /* I =*** */
(PID.TID 0000.0001)                 2.775055554645015E+05,      /* I =*** */
(PID.TID 0000.0001)                 2.694110134598581E+05,      /* I =*** */
(PID.TID 0000.0001)                 2.599949918261881E+05,      /* I =*** */
(PID.TID 0000.0001)                 2.491250781852558E+05,      /* I =*** */
(PID.TID 0000.0001)                 2.365892017348392E+05,      /* I =*** */
(PID.TID 0000.0001)                 2.220405216043041E+05,      /* I =*** */
(PID.TID 0000.0001)                 2.048868197919576E+05,      /* I =*** */
(PID.TID 0000.0001)                 1.840412227747703E+05,      /* I =*** */
(PID.TID 0000.0001)                 1.572908084538706E+05,      /* I =*** */
(PID.TID 0000.0001)                 1.202082051331828E+05,      /* I =*** */
(PID.TID 0000.0001)                 2.218350349844185E+05,      /* I =*** */
(PID.TID 0000.0001)                 2.252425816700941E+05,      /* I =*** */
(PID.TID 0000.0001)                 2.313145542636707E+05,      /* I =*** */
(PID.TID 0000.0001)                 2.390259833947229E+05,      /* I =*** */
(PID.TID 0000.0001)                 2.474852428920030E+05,      /* I =*** */
(PID.TID 0000.0001)                 2.560677095518683E+05,      /* I =*** */
(PID.TID 0000.0001)                 2.643782447232400E+05,      /* I =*** */
(PID.TID 0000.0001)                 2.721754665816094E+05,      /* I =*** */
(PID.TID 0000.0001)                 2.793107344025355E+05,      /* I =*** */
(PID.TID 0000.0001)                 2.856890576580387E+05,      /* I =*** */
(PID.TID 0000.0001)                 2.912463692481456E+05,      /* I =*** */
(PID.TID 0000.0001)                 2.959369960765984E+05,      /* I =*** */
(PID.TID 0000.0001)                 2.997270416250828E+05,      /* I =*** */
(PID.TID 0000.0001)                 3.025910706172647E+05,      /* I =*** */
(PID.TID 0000.0001)                 3.045105775939250E+05,      /* I =*** */
(PID.TID 0000.0001)     2 @  3.054733694195115E+05,             /* I =***:*** */
(PID.TID 0000.0001)                 3.045105775939250E+05,      /* I =*** */
(PID.TID 0000.0001)                 3.025910706172647E+05,      /* I =*** */
(PID.TID 0000.0001)                 2.997270416250828E+05,      /* I =*** */
(PID.TID 0000.0001)                 2.959369960765984E+05,      /* I =*** */
(PID.TID 0000.0001)                 2.912463692481456E+05,      /* I =*** */
(PID.TID 0000.0001)                 2.856890576580387E+05,      /* I =*** */
(PID.TID 0000.0001)                 2.793107344025355E+05,      /* I =*** */
(PID.TID 0000.0001)                 2.721754665816094E+05,      /* I =*** */
(PID.TID 0000.0001)                 2.643782447232400E+05,      /* I =*** */
(PID.TID 0000.0001)                 2.560677095518683E+05,      /* I =*** */
(PID.TID 0000.0001)                 2.474852428920030E+05,      /* I =*** */
(PID.TID 0000.0001)                 2.390259833947229E+05,      /* I =*** */
(PID.TID 0000.0001)                 2.313145542636707E+05,      /* I =*** */
(PID.TID 0000.0001)                 2.252425816700941E+05,      /* I =*** */
(PID.TID 0000.0001)                 2.218350349844185E+05,      /* I =*** */
(PID.TID 0000.0001)                 2.693210245495156E+05,      /* I =*** */
(PID.TID 0000.0001)                 2.704391598996622E+05,      /* I =*** */
(PID.TID 0000.0001)                 2.725847234797694E+05,      /* I =*** */
(PID.TID 0000.0001)                 2.755951392607118E+05,      /* I =*** */
(PID.TID 0000.0001)                 2.792653032262129E+05,      /* I =*** */
(PID.TID 0000.0001)                 2.833766693795861E+05,      /* I =*** */
(PID.TID 0000.0001)                 2.877189074801222E+05,      /* I =*** */
(PID.TID 0000.0001)                 2.921023023566398E+05,      /* I =*** */
(PID.TID 0000.0001)                 2.963626409677758E+05,      /* I =*** */
(PID.TID 0000.0001)                 3.003614422517500E+05,      /* I =*** */
(PID.TID 0000.0001)                 3.039839792389949E+05,      /* I =*** */
(PID.TID 0000.0001)                 3.071366753786757E+05,      /* I =*** */
(PID.TID 0000.0001)                 3.097446928597904E+05,      /* I =*** */
(PID.TID 0000.0001)                 3.117500277099095E+05,      /* I =*** */
(PID.TID 0000.0001)                 3.131101540263444E+05,      /* I =*** */
(PID.TID 0000.0001)     2 @  3.137971415338805E+05,             /* I =***:*** */
(PID.TID 0000.0001)                 3.131101540263444E+05,      /* I =*** */
(PID.TID 0000.0001)                 3.117500277099095E+05,      /* I =*** */
(PID.TID 0000.0001)                 3.097446928597904E+05,      /* I =*** */
(PID.TID 0000.0001)                 3.071366753786757E+05,      /* I =*** */
(PID.TID 0000.0001)                 3.039839792389949E+05,      /* I =*** */
(PID.TID 0000.0001)                 3.003614422517500E+05,      /* I =*** */
(PID.TID 0000.0001)                 2.963626409677758E+05,      /* I =*** */
(PID.TID 0000.0001)                 2.921023023566398E+05,      /* I =*** */
(PID.TID 0000.0001)                 2.877189074801222E+05,      /* I =*** */
(PID.TID 0000.0001)                 2.833766693795861E+05,      /* I =*** */
(PID.TID 0000.0001)                 2.792653032262129E+05,      /* I =*** */
(PID.TID 0000.0001)                 2.755951392607118E+05,      /* I =*** */
(PID.TID 0000.0001)                 2.725847234797694E+05,      /* I =*** */
(PID.TID 0000.0001)                 2.704391598996622E+05,      /* I =*** */
(PID.TID 0000.0001)                 2.693210245495156E+05,      /* I =*** */
(PID.TID 0000.0001)                 2.944742915095688E+05,      /* I =*** */
(PID.TID 0000.0001)                 2.950346424290142E+05,      /* I =*** */
(PID.TID 0000.0001)                 2.961274597460219E+05,      /* I =*** */
(PID.TID 0000.0001)                 2.976994255899062E+05,      /* I =*** */
(PID.TID 0000.0001)                 2.996761960679202E+05,      /* I =*** */
(PID.TID 0000.0001)                 3.019679590969354E+05,      /* I =*** */
(PID.TID 0000.0001)                 3.044752932796004E+05,      /* I =*** */
(PID.TID 0000.0001)                 3.070946554358933E+05,      /* I =*** */
(PID.TID 0000.0001)                 3.097231021673243E+05,      /* I =*** */
(PID.TID 0000.0001)                 3.122621129269982E+05,      /* I =*** */
(PID.TID 0000.0001)                 3.146205630894776E+05,      /* I =*** */
(PID.TID 0000.0001)                 3.167169842566044E+05,      /* I =*** */
(PID.TID 0000.0001)                 3.184812669057048E+05,      /* I =*** */
(PID.TID 0000.0001)                 3.198559380583477E+05,      /* I =*** */
(PID.TID 0000.0001)                 3.207971094843819E+05,      /* I =*** */
(PID.TID 0000.0001)     2 @  3.212751560265627E+05,             /* I =***:*** */
(PID.TID 0000.0001)                 3.207971094843819E+05,      /* I =*** */
(PID.TID 0000.0001)                 3.198559380583477E+05,      /* I =*** */
(PID.TID 0000.0001)                 3.184812669057048E+05,      /* I =*** */
(PID.TID 0000.0001)                 3.167169842566044E+05,      /* I =*** */
(PID.TID 0000.0001)                 3.146205630894776E+05,      /* I =*** */
(PID.TID 0000.0001)                 3.122621129269982E+05,      /* I =*** */
(PID.TID 0000.0001)                 3.097231021673243E+05,      /* I =*** */
(PID.TID 0000.0001)                 3.070946554358933E+05,      /* I =*** */
(PID.TID 0000.0001)                 3.044752932796004E+05,      /* I =*** */
(PID.TID 0000.0001)                 3.019679590969354E+05,      /* I =*** */
(PID.TID 0000.0001)                 2.996761960679202E+05,      /* I =*** */
(PID.TID 0000.0001)                 2.976994255899062E+05,      /* I =*** */
(PID.TID 0000.0001)                 2.961274597460219E+05,      /* I =*** */
(PID.TID 0000.0001)                 2.950346424290142E+05,      /* I =*** */
(PID.TID 0000.0001)                 2.944742915095688E+05,      /* I =*** */
(PID.TID 0000.0001)                 3.012190981969055E+05,      /* I =*** */
(PID.TID 0000.0001)                 3.016675528553907E+05,      /* I =*** */
(PID.TID 0000.0001)                 3.025451404065074E+05,      /* I =*** */
(PID.TID 0000.0001)                 3.038143430929827E+05,      /* I =*** */
(PID.TID 0000.0001)                 3.054215712079756E+05,      /* I =*** */
(PID.TID 0000.0001)                 3.073000594641912E+05,      /* I =*** */
(PID.TID 0000.0001)                 3.093732589453273E+05,      /* I =*** */
(PID.TID 0000.0001)                 3.115584474900804E+05,      /* I =*** */
(PID.TID 0000.0001)                 3.137703202065625E+05,      /* I =*** */
(PID.TID 0000.0001)                 3.159243816151009E+05,      /* I =*** */
(PID.TID 0000.0001)                 3.179400237154126E+05,      /* I =*** */
(PID.TID 0000.0001)                 3.197432274745630E+05,      /* I =*** */
(PID.TID 0000.0001)                 3.212688630823077E+05,      /* I =*** */
(PID.TID 0000.0001)                 3.224625867238719E+05,      /* I =*** */
(PID.TID 0000.0001)                 3.232823418193404E+05,      /* I =*** */
(PID.TID 0000.0001)     2 @  3.236994750082736E+05,             /* I =***:*** */
(PID.TID 0000.0001)                 3.232823418193404E+05,      /* I =*** */
(PID.TID 0000.0001)                 3.224625867238719E+05,      /* I =*** */
(PID.TID 0000.0001)                 3.212688630823077E+05,      /* I =*** */
(PID.TID 0000.0001)                 3.197432274745630E+05,      /* I =*** */
(PID.TID 0000.0001)                 3.179400237154126E+05,      /* I =*** */
(PID.TID 0000.0001)                 3.159243816151009E+05,      /* I =*** */
(PID.TID 0000.0001)                 3.137703202065625E+05,      /* I =*** */
(PID.TID 0000.0001)                 3.115584474900804E+05,      /* I =*** */
(PID.TID 0000.0001)                 3.093732589453273E+05,      /* I =*** */
(PID.TID 0000.0001)                 3.073000594641912E+05,      /* I =*** */
(PID.TID 0000.0001)                 3.054215712079756E+05,      /* I =*** */
(PID.TID 0000.0001)                 3.038143430929827E+05,      /* I =*** */
(PID.TID 0000.0001)                 3.025451404065074E+05,      /* I =*** */
(PID.TID 0000.0001)                 3.016675528553907E+05,      /* I =*** */
(PID.TID 0000.0001)                 3.012190981969055E+05,      /* I =*** */
(PID.TID 0000.0001)                 2.899590699694043E+05,      /* I =*** */
(PID.TID 0000.0001)                 2.906018212562565E+05,      /* I =*** */
(PID.TID 0000.0001)                 2.918523157404994E+05,      /* I =*** */
(PID.TID 0000.0001)                 2.936442966455010E+05,      /* I =*** */
(PID.TID 0000.0001)                 2.958868484465457E+05,      /* I =*** */
(PID.TID 0000.0001)                 2.984723635656422E+05,      /* I =*** */
(PID.TID 0000.0001)                 3.012844593281750E+05,      /* I =*** */
(PID.TID 0000.0001)                 3.042048495507529E+05,      /* I =*** */
(PID.TID 0000.0001)                 3.071187272280302E+05,      /* I =*** */
(PID.TID 0000.0001)                 3.099186614517519E+05,      /* I =*** */
(PID.TID 0000.0001)                 3.125072629909937E+05,      /* I =*** */
(PID.TID 0000.0001)                 3.147989491998900E+05,      /* I =*** */
(PID.TID 0000.0001)                 3.167211063730236E+05,      /* I =*** */
(PID.TID 0000.0001)                 3.182148701114423E+05,      /* I =*** */
(PID.TID 0000.0001)                 3.192356635510707E+05,      /* I =*** */
(PID.TID 0000.0001)     2 @  3.197535693737994E+05,             /* I =***:*** */
(PID.TID 0000.0001)                 3.192356635510707E+05,      /* I =*** */
(PID.TID 0000.0001)                 3.182148701114423E+05,      /* I =*** */
(PID.TID 0000.0001)                 3.167211063730236E+05,      /* I =*** */
(PID.TID 0000.0001)                 3.147989491998900E+05,      /* I =*** */
(PID.TID 0000.0001)                 3.125072629909937E+05,      /* I =*** */
(PID.TID 0000.0001)                 3.099186614517519E+05,      /* I =*** */
(PID.TID 0000.0001)                 3.071187272280302E+05,      /* I =*** */
(PID.TID 0000.0001)                 3.042048495507529E+05,      /* I =*** */
(PID.TID 0000.0001)                 3.012844593281750E+05,      /* I =*** */
(PID.TID 0000.0001)                 2.984723635656422E+05,      /* I =*** */
(PID.TID 0000.0001)                 2.958868484465457E+05,      /* I =*** */
(PID.TID 0000.0001)                 2.936442966455010E+05,      /* I =*** */
(PID.TID 0000.0001)                 2.918523157404994E+05,      /* I =*** */
(PID.TID 0000.0001)                 2.906018212562565E+05,      /* I =*** */
(PID.TID 0000.0001)                 2.899590699694043E+05,      /* I =*** */
(PID.TID 0000.0001)                 2.598919724358304E+05,      /* I =*** */
(PID.TID 0000.0001)                 2.612987785497329E+05,      /* I =*** */
(PID.TID 0000.0001)                 2.639749816177823E+05,      /* I =*** */
(PID.TID 0000.0001)                 2.676821762100863E+05,      /* I =*** */
(PID.TID 0000.0001)                 2.721339566565751E+05,      /* I =*** */
(PID.TID 0000.0001)                 2.770426972267964E+05,      /* I =*** */
(PID.TID 0000.0001)                 2.821485797298442E+05,      /* I =*** */
(PID.TID 0000.0001)                 2.872314003732699E+05,      /* I =*** */
(PID.TID 0000.0001)                 2.921111682925773E+05,      /* I =*** */
(PID.TID 0000.0001)                 2.966434639461947E+05,      /* I =*** */
(PID.TID 0000.0001)                 3.007134384377001E+05,      /* I =*** */
(PID.TID 0000.0001)                 3.042303595100670E+05,      /* I =*** */
(PID.TID 0000.0001)                 3.071233596908996E+05,      /* I =*** */
(PID.TID 0000.0001)                 3.093384179901085E+05,      /* I =*** */
(PID.TID 0000.0001)                 3.108363645263049E+05,      /* I =*** */
(PID.TID 0000.0001)     2 @  3.115916488673079E+05,             /* I =***:*** */
(PID.TID 0000.0001)                 3.108363645263049E+05,      /* I =*** */
(PID.TID 0000.0001)                 3.093384179901085E+05,      /* I =*** */
(PID.TID 0000.0001)                 3.071233596908996E+05,      /* I =*** */
(PID.TID 0000.0001)                 3.042303595100670E+05,      /* I =*** */
(PID.TID 0000.0001)                 3.007134384377001E+05,      /* I =*** */
(PID.TID 0000.0001)                 2.966434639461947E+05,      /* I =*** */
(PID.TID 0000.0001)                 2.921111682925773E+05,      /* I =*** */
(PID.TID 0000.0001)                 2.872314003732699E+05,      /* I =*** */
(PID.TID 0000.0001)                 2.821485797298442E+05,      /* I =*** */
(PID.TID 0000.0001)                 2.770426972267964E+05,      /* I =*** */
(PID.TID 0000.0001)                 2.721339566565751E+05,      /* I =*** */
(PID.TID 0000.0001)                 2.676821762100863E+05,      /* I =*** */
(PID.TID 0000.0001)                 2.639749816177823E+05,      /* I =*** */
(PID.TID 0000.0001)                 2.612987785497329E+05,      /* I =*** */
(PID.TID 0000.0001)                 2.598919724358304E+05,      /* I =*** */
(PID.TID 0000.0001)                 2.045883481718707E+05,      /* I =*** */
(PID.TID 0000.0001)                 2.096966946839077E+05,      /* I =*** */
(PID.TID 0000.0001)                 2.182813094203258E+05,      /* I =*** */
(PID.TID 0000.0001)                 2.284883157115105E+05,      /* I =*** */
(PID.TID 0000.0001)                 2.390627990003637E+05,      /* I =*** */
(PID.TID 0000.0001)                 2.493250570174761E+05,      /* I =*** */
(PID.TID 0000.0001)                 2.589389036316242E+05,      /* I =*** */
(PID.TID 0000.0001)                 2.677421336598871E+05,      /* I =*** */
(PID.TID 0000.0001)                 2.756548836326629E+05,      /* I =*** */
(PID.TID 0000.0001)                 2.826348871452257E+05,      /* I =*** */
(PID.TID 0000.0001)                 2.886566228869043E+05,      /* I =*** */
(PID.TID 0000.0001)                 2.937020375736682E+05,      /* I =*** */
(PID.TID 0000.0001)                 2.977567820180416E+05,      /* I =*** */
(PID.TID 0000.0001)                 3.008090206974398E+05,      /* I =*** */
(PID.TID 0000.0001)                 3.028493713733726E+05,      /* I =*** */
(PID.TID 0000.0001)     2 @  3.038712499122208E+05,             /* I =***:*** */
(PID.TID 0000.0001)                 3.028493713733726E+05,      /* I =*** */
(PID.TID 0000.0001)                 3.008090206974398E+05,      /* I =*** */
(PID.TID 0000.0001)                 2.977567820180416E+05,      /* I =*** */
(PID.TID 0000.0001)                 2.937020375736682E+05,      /* I =*** */
(PID.TID 0000.0001)                 2.886566228869043E+05,      /* I =*** */
(PID.TID 0000.0001)                 2.826348871452257E+05,      /* I =*** */
(PID.TID 0000.0001)                 2.756548836326629E+05,      /* I =*** */
(PID.TID 0000.0001)                 2.677421336598871E+05,      /* I =*** */
(PID.TID 0000.0001)                 2.589389036316242E+05,      /* I =*** */
(PID.TID 0000.0001)                 2.493250570174761E+05,      /* I =*** */
(PID.TID 0000.0001)                 2.390627990003637E+05,      /* I =*** */
(PID.TID 0000.0001)                 2.284883157115105E+05,      /* I =*** */
(PID.TID 0000.0001)                 2.182813094203258E+05,      /* I =*** */
(PID.TID 0000.0001)                 2.096966946839077E+05,      /* I =*** */
(PID.TID 0000.0001)                 2.045883481718707E+05,      /* I =*** */
(PID.TID 0000.0001)                 1.202082051331828E+05,      /* I =*** */
(PID.TID 0000.0001)                 1.572908084538706E+05,      /* I =*** */
(PID.TID 0000.0001)                 1.840412227747703E+05,      /* I =*** */
(PID.TID 0000.0001)                 2.048868197919576E+05,      /* I =*** */
(PID.TID 0000.0001)                 2.220405216043041E+05,      /* I =*** */
(PID.TID 0000.0001)                 2.365892017348392E+05,      /* I =*** */
(PID.TID 0000.0001)                 2.491250781852558E+05,      /* I =*** */
(PID.TID 0000.0001)                 2.599949918261881E+05,      /* I =*** */
(PID.TID 0000.0001)                 2.694110134598581E+05,      /* I =*** */
(PID.TID 0000.0001)                 2.775055554645015E+05,      /* I =*** */
(PID.TID 0000.0001)                 2.843615645344775E+05,      /* I =*** */
(PID.TID 0000.0001)                 2.900303768613599E+05,      /* I =*** */
(PID.TID 0000.0001)                 2.945429307892709E+05,      /* I =*** */
(PID.TID 0000.0001)                 2.979171143158405E+05,      /* I =*** */
(PID.TID 0000.0001)                 3.001626787528886E+05,      /* I =*** */
(PID.TID 0000.0001)     2 @  3.012844832048790E+05,             /* I =***:*** */
(PID.TID 0000.0001)                 3.001626787528886E+05,      /* I =*** */
(PID.TID 0000.0001)                 2.979171143158405E+05,      /* I =*** */
(PID.TID 0000.0001)                 2.945429307892709E+05,      /* I =*** */
(PID.TID 0000.0001)                 2.900303768613599E+05,      /* I =*** */
(PID.TID 0000.0001)                 2.843615645344775E+05,      /* I =*** */
(PID.TID 0000.0001)                 2.775055554645015E+05,      /* I =*** */
(PID.TID 0000.0001)                 2.694110134598581E+05,      /* I =*** */
(PID.TID 0000.0001)                 2.599949918261881E+05,      /* I =*** */
(PID.TID 0000.0001)                 2.491250781852558E+05,      /* I =*** */
(PID.TID 0000.0001)                 2.365892017348392E+05,      /* I =*** */
(PID.TID 0000.0001)                 2.220405216043041E+05,      /* I =*** */
(PID.TID 0000.0001)                 2.048868197919576E+05,      /* I =*** */
(PID.TID 0000.0001)                 1.840412227747703E+05,      /* I =*** */
(PID.TID 0000.0001)                 1.572908084538706E+05,      /* I =*** */
(PID.TID 0000.0001)                 1.202082051331828E+05,      /* I =*** */
(PID.TID 0000.0001)                 2.218350349844185E+05,      /* I =*** */
(PID.TID 0000.0001)                 2.252425816700941E+05,      /* I =*** */
(PID.TID 0000.0001)                 2.313145542636707E+05,      /* I =*** */
(PID.TID 0000.0001)                 2.390259833947229E+05,      /* I =*** */
(PID.TID 0000.0001)                 2.474852428920030E+05,      /* I =*** */
(PID.TID 0000.0001)                 2.560677095518683E+05,      /* I =*** */
(PID.TID 0000.0001)                 2.643782447232400E+05,      /* I =*** */
(PID.TID 0000.0001)                 2.721754665816094E+05,      /* I =*** */
(PID.TID 0000.0001)                 2.793107344025355E+05,      /* I =*** */
(PID.TID 0000.0001)                 2.856890576580387E+05,      /* I =*** */
(PID.TID 0000.0001)                 2.912463692481456E+05,      /* I =*** */
(PID.TID 0000.0001)                 2.959369960765984E+05,      /* I =*** */
(PID.TID 0000.0001)                 2.997270416250828E+05,      /* I =*** */
(PID.TID 0000.0001)                 3.025910706172647E+05,      /* I =*** */
(PID.TID 0000.0001)                 3.045105775939250E+05,      /* I =*** */
(PID.TID 0000.0001)     2 @  3.054733694195115E+05,             /* I =***:*** */
(PID.TID 0000.0001)                 3.045105775939250E+05,      /* I =*** */
(PID.TID 0000.0001)                 3.025910706172647E+05,      /* I =*** */
(PID.TID 0000.0001)                 2.997270416250828E+05,      /* I =*** */
(PID.TID 0000.0001)                 2.959369960765984E+05,      /* I =*** */
(PID.TID 0000.0001)                 2.912463692481456E+05,      /* I =*** */
(PID.TID 0000.0001)                 2.856890576580387E+05,      /* I =*** */
(PID.TID 0000.0001)                 2.793107344025355E+05,      /* I =*** */
(PID.TID 0000.0001)                 2.721754665816094E+05,      /* I =*** */
(PID.TID 0000.0001)                 2.643782447232400E+05,      /* I =*** */
(PID.TID 0000.0001)                 2.560677095518683E+05,      /* I =*** */
(PID.TID 0000.0001)                 2.474852428920030E+05,      /* I =*** */
(PID.TID 0000.0001)                 2.390259833947229E+05,      /* I =*** */
(PID.TID 0000.0001)                 2.313145542636707E+05,      /* I =*** */
(PID.TID 0000.0001)                 2.252425816700941E+05,      /* I =*** */
(PID.TID 0000.0001)                 2.218350349844185E+05,      /* I =*** */
(PID.TID 0000.0001)                 2.693210245495156E+05,      /* I =*** */
(PID.TID 0000.0001)                 2.704391598996622E+05,      /* I =*** */
(PID.TID 0000.0001)                 2.725847234797694E+05,      /* I =*** */
(PID.TID 0000.0001)                 2.755951392607118E+05,      /* I =*** */
(PID.TID 0000.0001)                 2.792653032262129E+05,      /* I =*** */
(PID.TID 0000.0001)                 2.833766693795861E+05,      /* I =*** */
(PID.TID 0000.0001)                 2.877189074801222E+05,      /* I =*** */
(PID.TID 0000.0001)                 2.921023023566398E+05,      /* I =*** */
(PID.TID 0000.0001)                 2.963626409677758E+05,      /* I =*** */
(PID.TID 0000.0001)                 3.003614422517500E+05,      /* I =*** */
(PID.TID 0000.0001)                 3.039839792389949E+05,      /* I =*** */
(PID.TID 0000.0001)                 3.071366753786757E+05,      /* I =*** */
(PID.TID 0000.0001)                 3.097446928597904E+05,      /* I =*** */
(PID.TID 0000.0001)                 3.117500277099095E+05,      /* I =*** */
(PID.TID 0000.0001)                 3.131101540263444E+05,      /* I =*** */
(PID.TID 0000.0001)     2 @  3.137971415338805E+05,             /* I =***:*** */
(PID.TID 0000.0001)                 3.131101540263444E+05,      /* I =*** */
(PID.TID 0000.0001)                 3.117500277099095E+05,      /* I =*** */
(PID.TID 0000.0001)                 3.097446928597904E+05,      /* I =*** */
(PID.TID 0000.0001)                 3.071366753786757E+05,      /* I =*** */
(PID.TID 0000.0001)                 3.039839792389949E+05,      /* I =*** */
(PID.TID 0000.0001)                 3.003614422517500E+05,      /* I =*** */
(PID.TID 0000.0001)                 2.963626409677758E+05,      /* I =*** */
(PID.TID 0000.0001)                 2.921023023566398E+05,      /* I =*** */
(PID.TID 0000.0001)                 2.877189074801222E+05,      /* I =*** */
(PID.TID 0000.0001)                 2.833766693795861E+05,      /* I =*** */
(PID.TID 0000.0001)                 2.792653032262129E+05,      /* I =*** */
(PID.TID 0000.0001)                 2.755951392607118E+05,      /* I =*** */
(PID.TID 0000.0001)                 2.725847234797694E+05,      /* I =*** */
(PID.TID 0000.0001)                 2.704391598996622E+05,      /* I =*** */
(PID.TID 0000.0001)                 2.693210245495156E+05,      /* I =*** */
(PID.TID 0000.0001)                 2.944742915095688E+05,      /* I =*** */
(PID.TID 0000.0001)                 2.950346424290142E+05,      /* I =*** */
(PID.TID 0000.0001)                 2.961274597460219E+05,      /* I =*** */
(PID.TID 0000.0001)                 2.976994255899062E+05,      /* I =*** */
(PID.TID 0000.0001)                 2.996761960679202E+05,      /* I =*** */
(PID.TID 0000.0001)                 3.019679590969354E+05,      /* I =*** */
(PID.TID 0000.0001)                 3.044752932796004E+05,      /* I =*** */
(PID.TID 0000.0001)                 3.070946554358933E+05,      /* I =*** */
(PID.TID 0000.0001)                 3.097231021673243E+05,      /* I =*** */
(PID.TID 0000.0001)                 3.122621129269982E+05,      /* I =*** */
(PID.TID 0000.0001)                 3.146205630894776E+05,      /* I =*** */
(PID.TID 0000.0001)                 3.167169842566044E+05,      /* I =*** */
(PID.TID 0000.0001)                 3.184812669057048E+05,      /* I =*** */
(PID.TID 0000.0001)                 3.198559380583477E+05,      /* I =*** */
(PID.TID 0000.0001)                 3.207971094843819E+05,      /* I =*** */
(PID.TID 0000.0001)     2 @  3.212751560265627E+05,             /* I =***:*** */
(PID.TID 0000.0001)                 3.207971094843819E+05,      /* I =*** */
(PID.TID 0000.0001)                 3.198559380583477E+05,      /* I =*** */
(PID.TID 0000.0001)                 3.184812669057048E+05,      /* I =*** */
(PID.TID 0000.0001)                 3.167169842566044E+05,      /* I =*** */
(PID.TID 0000.0001)                 3.146205630894776E+05,      /* I =*** */
(PID.TID 0000.0001)                 3.122621129269982E+05,      /* I =*** */
(PID.TID 0000.0001)                 3.097231021673243E+05,      /* I =*** */
(PID.TID 0000.0001)                 3.070946554358933E+05,      /* I =*** */
(PID.TID 0000.0001)                 3.044752932796004E+05,      /* I =*** */
(PID.TID 0000.0001)                 3.019679590969354E+05,      /* I =*** */
(PID.TID 0000.0001)                 2.996761960679202E+05,      /* I =*** */
(PID.TID 0000.0001)                 2.976994255899062E+05,      /* I =*** */
(PID.TID 0000.0001)                 2.961274597460219E+05,      /* I =*** */
(PID.TID 0000.0001)                 2.950346424290142E+05,      /* I =*** */
(PID.TID 0000.0001)                 2.944742915095688E+05,      /* I =*** */
(PID.TID 0000.0001)                 3.012190981969055E+05,      /* I =*** */
(PID.TID 0000.0001)                 3.016675528553907E+05,      /* I =*** */
(PID.TID 0000.0001)                 3.025451404065074E+05,      /* I =*** */
(PID.TID 0000.0001)                 3.038143430929827E+05,      /* I =*** */
(PID.TID 0000.0001)                 3.054215712079756E+05,      /* I =*** */
(PID.TID 0000.0001)                 3.073000594641912E+05,      /* I =*** */
(PID.TID 0000.0001)                 3.093732589453273E+05,      /* I =*** */
(PID.TID 0000.0001)                 3.115584474900804E+05,      /* I =*** */
(PID.TID 0000.0001)                 3.137703202065625E+05,      /* I =*** */
(PID.TID 0000.0001)                 3.159243816151009E+05,      /* I =*** */
(PID.TID 0000.0001)                 3.179400237154126E+05,      /* I =*** */
(PID.TID 0000.0001)                 3.197432274745630E+05,      /* I =*** */
(PID.TID 0000.0001)                 3.212688630823077E+05,      /* I =*** */
(PID.TID 0000.0001)                 3.224625867238719E+05,      /* I =*** */
(PID.TID 0000.0001)                 3.232823418193404E+05,      /* I =*** */
(PID.TID 0000.0001)     2 @  3.236994750082736E+05,             /* I =***:*** */
(PID.TID 0000.0001)                 3.232823418193404E+05,      /* I =*** */
(PID.TID 0000.0001)                 3.224625867238719E+05,      /* I =*** */
(PID.TID 0000.0001)                 3.212688630823077E+05,      /* I =*** */
(PID.TID 0000.0001)                 3.197432274745630E+05,      /* I =*** */
(PID.TID 0000.0001)                 3.179400237154126E+05,      /* I =*** */
(PID.TID 0000.0001)                 3.159243816151009E+05,      /* I =*** */
(PID.TID 0000.0001)                 3.137703202065625E+05,      /* I =*** */
(PID.TID 0000.0001)                 3.115584474900804E+05,      /* I =*** */
(PID.TID 0000.0001)                 3.093732589453273E+05,      /* I =*** */
(PID.TID 0000.0001)                 3.073000594641912E+05,      /* I =*** */
(PID.TID 0000.0001)                 3.054215712079756E+05,      /* I =*** */
(PID.TID 0000.0001)                 3.038143430929827E+05,      /* I =*** */
(PID.TID 0000.0001)                 3.025451404065074E+05,      /* I =*** */
(PID.TID 0000.0001)                 3.016675528553907E+05,      /* I =*** */
(PID.TID 0000.0001)                 3.012190981969055E+05,      /* I =*** */
(PID.TID 0000.0001)                 2.899590699694043E+05,      /* I =*** */
(PID.TID 0000.0001)                 2.906018212562565E+05,      /* I =*** */
(PID.TID 0000.0001)                 2.918523157404994E+05,      /* I =*** */
(PID.TID 0000.0001)                 2.936442966455010E+05,      /* I =*** */
(PID.TID 0000.0001)                 2.958868484465457E+05,      /* I =*** */
(PID.TID 0000.0001)                 2.984723635656422E+05,      /* I =*** */
(PID.TID 0000.0001)                 3.012844593281750E+05,      /* I =*** */
(PID.TID 0000.0001)                 3.042048495507529E+05,      /* I =*** */
(PID.TID 0000.0001)                 3.071187272280302E+05,      /* I =*** */
(PID.TID 0000.0001)                 3.099186614517519E+05,      /* I =*** */
(PID.TID 0000.0001)                 3.125072629909937E+05,      /* I =*** */
(PID.TID 0000.0001)                 3.147989491998900E+05,      /* I =*** */
(PID.TID 0000.0001)                 3.167211063730236E+05,      /* I =*** */
(PID.TID 0000.0001)                 3.182148701114423E+05,      /* I =*** */
(PID.TID 0000.0001)                 3.192356635510707E+05,      /* I =*** */
(PID.TID 0000.0001)     2 @  3.197535693737994E+05,             /* I =***:*** */
(PID.TID 0000.0001)                 3.192356635510707E+05,      /* I =*** */
(PID.TID 0000.0001)                 3.182148701114423E+05,      /* I =*** */
(PID.TID 0000.0001)                 3.167211063730236E+05,      /* I =*** */
(PID.TID 0000.0001)                 3.147989491998900E+05,      /* I =*** */
(PID.TID 0000.0001)                 3.125072629909937E+05,      /* I =*** */
(PID.TID 0000.0001)                 3.099186614517519E+05,      /* I =*** */
(PID.TID 0000.0001)                 3.071187272280302E+05,      /* I =*** */
(PID.TID 0000.0001)                 3.042048495507529E+05,      /* I =*** */
(PID.TID 0000.0001)                 3.012844593281750E+05,      /* I =*** */
(PID.TID 0000.0001)                 2.984723635656422E+05,      /* I =*** */
(PID.TID 0000.0001)                 2.958868484465457E+05,      /* I =*** */
(PID.TID 0000.0001)                 2.936442966455010E+05,      /* I =*** */
(PID.TID 0000.0001)                 2.918523157404994E+05,      /* I =*** */
(PID.TID 0000.0001)                 2.906018212562565E+05,      /* I =*** */
(PID.TID 0000.0001)                 2.899590699694043E+05,      /* I =*** */
(PID.TID 0000.0001)                 2.598919724358304E+05,      /* I =*** */
(PID.TID 0000.0001)                 2.612987785497329E+05,      /* I =*** */
(PID.TID 0000.0001)                 2.639749816177823E+05,      /* I =*** */
(PID.TID 0000.0001)                 2.676821762100863E+05,      /* I =*** */
(PID.TID 0000.0001)                 2.721339566565751E+05,      /* I =*** */
(PID.TID 0000.0001)                 2.770426972267964E+05,      /* I =*** */
(PID.TID 0000.0001)                 2.821485797298442E+05,      /* I =*** */
(PID.TID 0000.0001)                 2.872314003732699E+05,      /* I =*** */
(PID.TID 0000.0001)                 2.921111682925773E+05,      /* I =*** */
(PID.TID 0000.0001)                 2.966434639461947E+05,      /* I =*** */
(PID.TID 0000.0001)                 3.007134384377001E+05,      /* I =*** */
(PID.TID 0000.0001)                 3.042303595100670E+05,      /* I =*** */
(PID.TID 0000.0001)                 3.071233596908996E+05,      /* I =*** */
(PID.TID 0000.0001)                 3.093384179901085E+05,      /* I =*** */
(PID.TID 0000.0001)                 3.108363645263049E+05,      /* I =*** */
(PID.TID 0000.0001)     2 @  3.115916488673079E+05,             /* I =***:*** */
(PID.TID 0000.0001)                 3.108363645263049E+05,      /* I =*** */
(PID.TID 0000.0001)                 3.093384179901085E+05,      /* I =*** */
(PID.TID 0000.0001)                 3.071233596908996E+05,      /* I =*** */
(PID.TID 0000.0001)                 3.042303595100670E+05,      /* I =*** */
(PID.TID 0000.0001)                 3.007134384377001E+05,      /* I =*** */
(PID.TID 0000.0001)                 2.966434639461947E+05,      /* I =*** */
(PID.TID 0000.0001)                 2.921111682925773E+05,      /* I =*** */
(PID.TID 0000.0001)                 2.872314003732699E+05,      /* I =*** */
(PID.TID 0000.0001)                 2.821485797298442E+05,      /* I =*** */
(PID.TID 0000.0001)                 2.770426972267964E+05,      /* I =*** */
(PID.TID 0000.0001)                 2.721339566565751E+05,      /* I =*** */
(PID.TID 0000.0001)                 2.676821762100863E+05,      /* I =*** */
(PID.TID 0000.0001)                 2.639749816177823E+05,      /* I =*** */
(PID.TID 0000.0001)                 2.612987785497329E+05,      /* I =*** */
(PID.TID 0000.0001)                 2.598919724358304E+05,      /* I =*** */
(PID.TID 0000.0001)                 2.045883481718707E+05,      /* I =*** */
(PID.TID 0000.0001)                 2.096966946839077E+05,      /* I =*** */
(PID.TID 0000.0001)                 2.182813094203258E+05,      /* I =*** */
(PID.TID 0000.0001)                 2.284883157115105E+05,      /* I =*** */
(PID.TID 0000.0001)                 2.390627990003637E+05,      /* I =*** */
(PID.TID 0000.0001)                 2.493250570174761E+05,      /* I =*** */
(PID.TID 0000.0001)                 2.589389036316242E+05,      /* I =*** */
(PID.TID 0000.0001)                 2.677421336598871E+05,      /* I =*** */
(PID.TID 0000.0001)                 2.756548836326629E+05,      /* I =*** */
(PID.TID 0000.0001)                 2.826348871452257E+05,      /* I =*** */
(PID.TID 0000.0001)                 2.886566228869043E+05,      /* I =*** */
(PID.TID 0000.0001)                 2.937020375736682E+05,      /* I =*** */
(PID.TID 0000.0001)                 2.977567820180416E+05,      /* I =*** */
(PID.TID 0000.0001)                 3.008090206974398E+05,      /* I =*** */
(PID.TID 0000.0001)                 3.028493713733726E+05,      /* I =*** */
(PID.TID 0000.0001)     2 @  3.038712499122208E+05,             /* I =***:*** */
(PID.TID 0000.0001)                 3.028493713733726E+05,      /* I =*** */
(PID.TID 0000.0001)                 3.008090206974398E+05,      /* I =*** */
(PID.TID 0000.0001)                 2.977567820180416E+05,      /* I =*** */
(PID.TID 0000.0001)                 2.937020375736682E+05,      /* I =*** */
(PID.TID 0000.0001)                 2.886566228869043E+05,      /* I =*** */
(PID.TID 0000.0001)                 2.826348871452257E+05,      /* I =*** */
(PID.TID 0000.0001)                 2.756548836326629E+05,      /* I =*** */
(PID.TID 0000.0001)                 2.677421336598871E+05,      /* I =*** */
(PID.TID 0000.0001)                 2.589389036316242E+05,      /* I =*** */
(PID.TID 0000.0001)                 2.493250570174761E+05,      /* I =*** */
(PID.TID 0000.0001)                 2.390627990003637E+05,      /* I =*** */
(PID.TID 0000.0001)                 2.284883157115105E+05,      /* I =*** */
(PID.TID 0000.0001)                 2.182813094203258E+05,      /* I =*** */
(PID.TID 0000.0001)                 2.096966946839077E+05,      /* I =*** */
(PID.TID 0000.0001)                 2.045883481718707E+05       /* I =*** */
(PID.TID 0000.0001)     ;
(PID.TID 0000.0001) dyF =  /* dyF(1,:,1,:) ( m - cartesian, degrees - spherical ) */
(PID.TID 0000.0001)                 1.202082051331828E+05,      /* J =  1 */
(PID.TID 0000.0001)                 1.563594089971120E+05,      /* J =  2 */
(PID.TID 0000.0001)                 1.835530058121492E+05,      /* J =  3 */
(PID.TID 0000.0001)                 2.045883481718707E+05       /* J =  4 */
(PID.TID 0000.0001)     ;
(PID.TID 0000.0001) dxG =  /* dxG(:,1,:,1) ( m - cartesian, degrees - spherical ) */
(PID.TID 0000.0001)                 1.009837800879055E+05,      /* I =  1 */
(PID.TID 0000.0001)                 1.534505834330338E+05,      /* I =  2 */
(PID.TID 0000.0001)                 1.823321598773926E+05,      /* I =  3 */
(PID.TID 0000.0001)                 2.038999045536999E+05,      /* I =  4 */
(PID.TID 0000.0001)                 2.213884732245467E+05,      /* I =  5 */
(PID.TID 0000.0001)                 2.361211699596122E+05,      /* I =  6 */
(PID.TID 0000.0001)                 2.487693460283865E+05,      /* I =  7 */
(PID.TID 0000.0001)                 2.597126963772147E+05,      /* I =  8 */
(PID.TID 0000.0001)                 2.691790288994575E+05,      /* I =  9 */
(PID.TID 0000.0001)                 2.773091043277394E+05,      /* I = 10 */
(PID.TID 0000.0001)                 2.841906470085516E+05,      /* I = 11 */
(PID.TID 0000.0001)                 2.898778860929753E+05,      /* I = 12 */
(PID.TID 0000.0001)                 2.944035815526416E+05,      /* I = 13 */
(PID.TID 0000.0001)                 2.977867909042096E+05,      /* I = 14 */
(PID.TID 0000.0001)                 3.000380090330854E+05,      /* I = 15 */
(PID.TID 0000.0001)     2 @  3.011625828699101E+05,             /* I = 16: 17 */
(PID.TID 0000.0001)                 3.000380090330854E+05,      /* I = 18 */
(PID.TID 0000.0001)                 2.977867909042096E+05,      /* I = 19 */
(PID.TID 0000.0001)                 2.944035815526416E+05,      /* I = 20 */
(PID.TID 0000.0001)                 2.898778860929753E+05,      /* I = 21 */
(PID.TID 0000.0001)                 2.841906470085516E+05,      /* I = 22 */
(PID.TID 0000.0001)                 2.773091043277394E+05,      /* I = 23 */
(PID.TID 0000.0001)                 2.691790288994575E+05,      /* I = 24 */
(PID.TID 0000.0001)                 2.597126963772147E+05,      /* I = 25 */
(PID.TID 0000.0001)                 2.487693460283865E+05,      /* I = 26 */
(PID.TID 0000.0001)                 2.361211699596122E+05,      /* I = 27 */
(PID.TID 0000.0001)                 2.213884732245467E+05,      /* I = 28 */
(PID.TID 0000.0001)                 2.038999045536999E+05,      /* I = 29 */
(PID.TID 0000.0001)                 1.823321598773926E+05,      /* I = 30 */
(PID.TID 0000.0001)                 1.534505834330338E+05,      /* I = 31 */
(PID.TID 0000.0001)                 1.009837800879055E+05,      /* I = 32 */
(PID.TID 0000.0001)                 2.138410773065497E+05,      /* I = 33 */
(PID.TID 0000.0001)                 2.178997870705349E+05,      /* I = 34 */
(PID.TID 0000.0001)                 2.249916053111643E+05,      /* I = 35 */
(PID.TID 0000.0001)                 2.337827806959134E+05,      /* I = 36 */
(PID.TID 0000.0001)                 2.432074113090727E+05,      /* I = 37 */
(PID.TID 0000.0001)                 2.525876267557343E+05,      /* I = 38 */
(PID.TID 0000.0001)                 2.615348743552910E+05,      /* I = 39 */
(PID.TID 0000.0001)                 2.698333765987323E+05,      /* I = 40 */
(PID.TID 0000.0001)                 2.773613965982297E+05,      /* I = 41 */
(PID.TID 0000.0001)                 2.840465394886363E+05,      /* I = 42 */
(PID.TID 0000.0001)                 2.898421973842925E+05,      /* I = 43 */
(PID.TID 0000.0001)                 2.947156814824661E+05,      /* I = 44 */
(PID.TID 0000.0001)                 2.986425300747283E+05,      /* I = 45 */
(PID.TID 0000.0001)                 3.016039986390681E+05,      /* I = 46 */
(PID.TID 0000.0001)                 3.035861321652118E+05,      /* I = 47 */
(PID.TID 0000.0001)     2 @  3.045796060304602E+05,             /* I = 48: 49 */
(PID.TID 0000.0001)                 3.035861321652118E+05,      /* I = 50 */
(PID.TID 0000.0001)                 3.016039986390681E+05,      /* I = 51 */
(PID.TID 0000.0001)                 2.986425300747283E+05,      /* I = 52 */
(PID.TID 0000.0001)                 2.947156814824661E+05,      /* I = 53 */
(PID.TID 0000.0001)                 2.898421973842925E+05,      /* I = 54 */
(PID.TID 0000.0001)                 2.840465394886363E+05,      /* I = 55 */
(PID.TID 0000.0001)                 2.773613965982297E+05,      /* I = 56 */
(PID.TID 0000.0001)                 2.698333765987323E+05,      /* I = 57 */
(PID.TID 0000.0001)                 2.615348743552910E+05,      /* I = 58 */
(PID.TID 0000.0001)                 2.525876267557343E+05,      /* I = 59 */
(PID.TID 0000.0001)                 2.432074113090727E+05,      /* I = 60 */
(PID.TID 0000.0001)                 2.337827806959134E+05,      /* I = 61 */
(PID.TID 0000.0001)                 2.249916053111643E+05,      /* I = 62 */
(PID.TID 0000.0001)                 2.178997870705349E+05,      /* I = 63 */
(PID.TID 0000.0001)                 2.138410773065497E+05,      /* I = 64 */
(PID.TID 0000.0001)                 2.648750305193301E+05,      /* I = 65 */
(PID.TID 0000.0001)                 2.661181018072810E+05,      /* I = 66 */
(PID.TID 0000.0001)                 2.684951411609472E+05,      /* I = 67 */
(PID.TID 0000.0001)                 2.718130194543262E+05,      /* I = 68 */
(PID.TID 0000.0001)                 2.758327097123360E+05,      /* I = 69 */
(PID.TID 0000.0001)                 2.803055238380586E+05,      /* I = 70 */
(PID.TID 0000.0001)                 2.849983456747301E+05,      /* I = 71 */
(PID.TID 0000.0001)                 2.897064557701324E+05,      /* I = 72 */
(PID.TID 0000.0001)                 2.942570946491559E+05,      /* I = 73 */
(PID.TID 0000.0001)                 2.985078462652251E+05,      /* I = 74 */
(PID.TID 0000.0001)                 3.023429734268671E+05,      /* I = 75 */
(PID.TID 0000.0001)                 3.056695262148454E+05,      /* I = 76 */
(PID.TID 0000.0001)                 3.084140431300752E+05,      /* I = 77 */
(PID.TID 0000.0001)                 3.105200753220973E+05,      /* I = 78 */
(PID.TID 0000.0001)                 3.119464819293889E+05,      /* I = 79 */
(PID.TID 0000.0001)     2 @  3.126663860714039E+05,             /* I = 80: 81 */
(PID.TID 0000.0001)                 3.119464819293889E+05,      /* I = 82 */
(PID.TID 0000.0001)                 3.105200753220973E+05,      /* I = 83 */
(PID.TID 0000.0001)                 3.084140431300752E+05,      /* I = 84 */
(PID.TID 0000.0001)                 3.056695262148454E+05,      /* I = 85 */
(PID.TID 0000.0001)                 3.023429734268671E+05,      /* I = 86 */
(PID.TID 0000.0001)                 2.985078462652251E+05,      /* I = 87 */
(PID.TID 0000.0001)                 2.942570946491559E+05,      /* I = 88 */
(PID.TID 0000.0001)                 2.897064557701324E+05,      /* I = 89 */
(PID.TID 0000.0001)                 2.849983456747301E+05,      /* I = 90 */
(PID.TID 0000.0001)                 2.803055238380586E+05,      /* I = 91 */
(PID.TID 0000.0001)                 2.758327097123360E+05,      /* I = 92 */
(PID.TID 0000.0001)                 2.718130194543262E+05,      /* I = 93 */
(PID.TID 0000.0001)                 2.684951411609472E+05,      /* I = 94 */
(PID.TID 0000.0001)                 2.661181018072810E+05,      /* I = 95 */
(PID.TID 0000.0001)                 2.648750305193301E+05,      /* I = 96 */
(PID.TID 0000.0001)                 2.924298293668651E+05,      /* I = 97 */
(PID.TID 0000.0001)                 2.930257426072231E+05,      /* I = 98 */
(PID.TID 0000.0001)                 2.941867219746503E+05,      /* I = 99 */
(PID.TID 0000.0001)                 2.958540382632805E+05,      /* I =100 */
(PID.TID 0000.0001)                 2.979463555053116E+05,      /* I =101 */
(PID.TID 0000.0001)                 3.003662670762532E+05,      /* I =102 */
(PID.TID 0000.0001)                 3.030070166343265E+05,      /* I =103 */
(PID.TID 0000.0001)                 3.057585931291658E+05,      /* I =104 */
(PID.TID 0000.0001)                 3.085127702930367E+05,      /* I =105 */
(PID.TID 0000.0001)                 3.111669994344792E+05,      /* I =106 */
(PID.TID 0000.0001)                 3.136272805687003E+05,      /* I =107 */
(PID.TID 0000.0001)                 3.158102274380121E+05,      /* I =108 */
(PID.TID 0000.0001)                 3.176445436663792E+05,      /* I =109 */
(PID.TID 0000.0001)                 3.190720839296710E+05,      /* I =110 */
(PID.TID 0000.0001)                 3.200486187399661E+05,      /* I =111 */
(PID.TID 0000.0001)     2 @  3.205444100809708E+05,             /* I =112:113 */
(PID.TID 0000.0001)                 3.200486187399661E+05,      /* I =114 */
(PID.TID 0000.0001)                 3.190720839296710E+05,      /* I =115 */
(PID.TID 0000.0001)                 3.176445436663792E+05,      /* I =116 */
(PID.TID 0000.0001)                 3.158102274380121E+05,      /* I =117 */
(PID.TID 0000.0001)                 3.136272805687003E+05,      /* I =118 */
(PID.TID 0000.0001)                 3.111669994344792E+05,      /* I =119 */
(PID.TID 0000.0001)                 3.085127702930367E+05,      /* I =120 */
(PID.TID 0000.0001)                 3.057585931291658E+05,      /* I =121 */
(PID.TID 0000.0001)                 3.030070166343265E+05,      /* I =122 */
(PID.TID 0000.0001)                 3.003662670762532E+05,      /* I =123 */
(PID.TID 0000.0001)                 2.979463555053116E+05,      /* I =124 */
(PID.TID 0000.0001)                 2.958540382632805E+05,      /* I =125 */
(PID.TID 0000.0001)                 2.941867219746503E+05,      /* I =126 */
(PID.TID 0000.0001)                 2.930257426072231E+05,      /* I =127 */
(PID.TID 0000.0001)                 2.924298293668651E+05,      /* I =128 */
(PID.TID 0000.0001)                 3.014246674484008E+05,      /* I =129 */
(PID.TID 0000.0001)                 3.018694497480782E+05,      /* I =130 */
(PID.TID 0000.0001)                 3.027399364062562E+05,      /* I =131 */
(PID.TID 0000.0001)                 3.039990657490951E+05,      /* I =132 */
(PID.TID 0000.0001)                 3.055938607351786E+05,      /* I =133 */
(PID.TID 0000.0001)                 3.074582577767738E+05,      /* I =134 */
(PID.TID 0000.0001)                 3.095164322685570E+05,      /* I =135 */
(PID.TID 0000.0001)                 3.116863538419811E+05,      /* I =136 */
(PID.TID 0000.0001)                 3.138833384868975E+05,      /* I =137 */
(PID.TID 0000.0001)                 3.160234197751047E+05,      /* I =138 */
(PID.TID 0000.0001)                 3.180264208293543E+05,      /* I =139 */
(PID.TID 0000.0001)                 3.198186602283748E+05,      /* I =140 */
(PID.TID 0000.0001)                 3.213352627063766E+05,      /* I =141 */
(PID.TID 0000.0001)                 3.225220686282585E+05,      /* I =142 */
(PID.TID 0000.0001)                 3.233371474853745E+05,      /* I =143 */
(PID.TID 0000.0001)     2 @  3.237519587277332E+05,             /* I =144:145 */
(PID.TID 0000.0001)                 3.233371474853745E+05,      /* I =146 */
(PID.TID 0000.0001)                 3.225220686282585E+05,      /* I =147 */
(PID.TID 0000.0001)                 3.213352627063766E+05,      /* I =148 */
(PID.TID 0000.0001)                 3.198186602283748E+05,      /* I =149 */
(PID.TID 0000.0001)                 3.180264208293543E+05,      /* I =150 */
(PID.TID 0000.0001)                 3.160234197751047E+05,      /* I =151 */
(PID.TID 0000.0001)                 3.138833384868975E+05,      /* I =152 */
(PID.TID 0000.0001)                 3.116863538419811E+05,      /* I =153 */
(PID.TID 0000.0001)                 3.095164322685570E+05,      /* I =154 */
(PID.TID 0000.0001)                 3.074582577767738E+05,      /* I =155 */
(PID.TID 0000.0001)                 3.055938607351786E+05,      /* I =156 */
(PID.TID 0000.0001)                 3.039990657490951E+05,      /* I =157 */
(PID.TID 0000.0001)                 3.027399364062562E+05,      /* I =158 */
(PID.TID 0000.0001)                 3.018694497480782E+05,      /* I =159 */
(PID.TID 0000.0001)                 3.014246674484008E+05,      /* I =160 */
(PID.TID 0000.0001)                 2.924298293668651E+05,      /* I =161 */
(PID.TID 0000.0001)                 2.930257426072231E+05,      /* I =162 */
(PID.TID 0000.0001)                 2.941867219746503E+05,      /* I =163 */
(PID.TID 0000.0001)                 2.958540382632805E+05,      /* I =164 */
(PID.TID 0000.0001)                 2.979463555053116E+05,      /* I =165 */
(PID.TID 0000.0001)                 3.003662670762532E+05,      /* I =166 */
(PID.TID 0000.0001)                 3.030070166343265E+05,      /* I =167 */
(PID.TID 0000.0001)                 3.057585931291658E+05,      /* I =168 */
(PID.TID 0000.0001)                 3.085127702930367E+05,      /* I =169 */
(PID.TID 0000.0001)                 3.111669994344792E+05,      /* I =170 */
(PID.TID 0000.0001)                 3.136272805687003E+05,      /* I =171 */
(PID.TID 0000.0001)                 3.158102274380121E+05,      /* I =172 */
(PID.TID 0000.0001)                 3.176445436663792E+05,      /* I =173 */
(PID.TID 0000.0001)                 3.190720839296710E+05,      /* I =174 */
(PID.TID 0000.0001)                 3.200486187399661E+05,      /* I =175 */
(PID.TID 0000.0001)     2 @  3.205444100809708E+05,             /* I =176:177 */
(PID.TID 0000.0001)                 3.200486187399661E+05,      /* I =178 */
(PID.TID 0000.0001)                 3.190720839296710E+05,      /* I =179 */
(PID.TID 0000.0001)                 3.176445436663792E+05,      /* I =180 */
(PID.TID 0000.0001)                 3.158102274380121E+05,      /* I =181 */
(PID.TID 0000.0001)                 3.136272805687003E+05,      /* I =182 */
(PID.TID 0000.0001)                 3.111669994344792E+05,      /* I =183 */
(PID.TID 0000.0001)                 3.085127702930367E+05,      /* I =184 */
(PID.TID 0000.0001)                 3.057585931291658E+05,      /* I =185 */
(PID.TID 0000.0001)                 3.030070166343265E+05,      /* I =186 */
(PID.TID 0000.0001)                 3.003662670762532E+05,      /* I =187 */
(PID.TID 0000.0001)                 2.979463555053116E+05,      /* I =188 */
(PID.TID 0000.0001)                 2.958540382632805E+05,      /* I =189 */
(PID.TID 0000.0001)                 2.941867219746503E+05,      /* I =190 */
(PID.TID 0000.0001)                 2.930257426072231E+05,      /* I =191 */
(PID.TID 0000.0001)                 2.924298293668651E+05,      /* I =192 */
(PID.TID 0000.0001)                 2.648750305193301E+05,      /* I =193 */
(PID.TID 0000.0001)                 2.661181018072810E+05,      /* I =194 */
(PID.TID 0000.0001)                 2.684951411609472E+05,      /* I =195 */
(PID.TID 0000.0001)                 2.718130194543262E+05,      /* I =196 */
(PID.TID 0000.0001)                 2.758327097123360E+05,      /* I =197 */
(PID.TID 0000.0001)                 2.803055238380586E+05,      /* I =198 */
(PID.TID 0000.0001)                 2.849983456747301E+05,      /* I =199 */
(PID.TID 0000.0001)                 2.897064557701324E+05,      /* I =200 */
(PID.TID 0000.0001)                 2.942570946491559E+05,      /* I =201 */
(PID.TID 0000.0001)                 2.985078462652251E+05,      /* I =202 */
(PID.TID 0000.0001)                 3.023429734268671E+05,      /* I =203 */
(PID.TID 0000.0001)                 3.056695262148454E+05,      /* I =204 */
(PID.TID 0000.0001)                 3.084140431300752E+05,      /* I =205 */
(PID.TID 0000.0001)                 3.105200753220973E+05,      /* I =206 */
(PID.TID 0000.0001)                 3.119464819293889E+05,      /* I =207 */
(PID.TID 0000.0001)     2 @  3.126663860714039E+05,             /* I =208:209 */
(PID.TID 0000.0001)                 3.119464819293889E+05,      /* I =210 */
(PID.TID 0000.0001)                 3.105200753220973E+05,      /* I =211 */
(PID.TID 0000.0001)                 3.084140431300752E+05,      /* I =212 */
(PID.TID 0000.0001)                 3.056695262148454E+05,      /* I =213 */
(PID.TID 0000.0001)                 3.023429734268671E+05,      /* I =214 */
(PID.TID 0000.0001)                 2.985078462652251E+05,      /* I =215 */
(PID.TID 0000.0001)                 2.942570946491559E+05,      /* I =216 */
(PID.TID 0000.0001)                 2.897064557701324E+05,      /* I =217 */
(PID.TID 0000.0001)                 2.849983456747301E+05,      /* I =218 */
(PID.TID 0000.0001)                 2.803055238380586E+05,      /* I =219 */
(PID.TID 0000.0001)                 2.758327097123360E+05,      /* I =220 */
(PID.TID 0000.0001)                 2.718130194543262E+05,      /* I =221 */
(PID.TID 0000.0001)                 2.684951411609472E+05,      /* I =222 */
(PID.TID 0000.0001)                 2.661181018072810E+05,      /* I =223 */
(PID.TID 0000.0001)                 2.648750305193301E+05,      /* I =224 */
(PID.TID 0000.0001)                 2.138410773065497E+05,      /* I =225 */
(PID.TID 0000.0001)                 2.178997870705349E+05,      /* I =226 */
(PID.TID 0000.0001)                 2.249916053111643E+05,      /* I =227 */
(PID.TID 0000.0001)                 2.337827806959134E+05,      /* I =228 */
(PID.TID 0000.0001)                 2.432074113090727E+05,      /* I =229 */
(PID.TID 0000.0001)                 2.525876267557343E+05,      /* I =230 */
(PID.TID 0000.0001)                 2.615348743552910E+05,      /* I =231 */
(PID.TID 0000.0001)                 2.698333765987323E+05,      /* I =232 */
(PID.TID 0000.0001)                 2.773613965982297E+05,      /* I =233 */
(PID.TID 0000.0001)                 2.840465394886363E+05,      /* I =234 */
(PID.TID 0000.0001)                 2.898421973842925E+05,      /* I =235 */
(PID.TID 0000.0001)                 2.947156814824661E+05,      /* I =236 */
(PID.TID 0000.0001)                 2.986425300747283E+05,      /* I =237 */
(PID.TID 0000.0001)                 3.016039986390681E+05,      /* I =238 */
(PID.TID 0000.0001)                 3.035861321652118E+05,      /* I =239 */
(PID.TID 0000.0001)     2 @  3.045796060304602E+05,             /* I =240:241 */
(PID.TID 0000.0001)                 3.035861321652118E+05,      /* I =242 */
(PID.TID 0000.0001)                 3.016039986390681E+05,      /* I =243 */
(PID.TID 0000.0001)                 2.986425300747283E+05,      /* I =244 */
(PID.TID 0000.0001)                 2.947156814824661E+05,      /* I =245 */
(PID.TID 0000.0001)                 2.898421973842925E+05,      /* I =246 */
(PID.TID 0000.0001)                 2.840465394886363E+05,      /* I =247 */
(PID.TID 0000.0001)                 2.773613965982297E+05,      /* I =248 */
(PID.TID 0000.0001)                 2.698333765987323E+05,      /* I =249 */
(PID.TID 0000.0001)                 2.615348743552910E+05,      /* I =250 */
(PID.TID 0000.0001)                 2.525876267557343E+05,      /* I =251 */
(PID.TID 0000.0001)                 2.432074113090727E+05,      /* I =252 */
(PID.TID 0000.0001)                 2.337827806959134E+05,      /* I =253 */
(PID.TID 0000.0001)                 2.249916053111643E+05,      /* I =254 */
(PID.TID 0000.0001)                 2.178997870705349E+05,      /* I =255 */
(PID.TID 0000.0001)                 2.138410773065497E+05,      /* I =256 */
(PID.TID 0000.0001)                 1.009837800879055E+05,      /* I =257 */
(PID.TID 0000.0001)                 1.534505834330338E+05,      /* I =258 */
(PID.TID 0000.0001)                 1.823321598773926E+05,      /* I =259 */
(PID.TID 0000.0001)                 2.038999045536999E+05,      /* I =260 */
(PID.TID 0000.0001)                 2.213884732245467E+05,      /* I =261 */
(PID.TID 0000.0001)                 2.361211699596122E+05,      /* I =262 */
(PID.TID 0000.0001)                 2.487693460283865E+05,      /* I =263 */
(PID.TID 0000.0001)                 2.597126963772147E+05,      /* I =264 */
(PID.TID 0000.0001)                 2.691790288994575E+05,      /* I =265 */
(PID.TID 0000.0001)                 2.773091043277394E+05,      /* I =266 */
(PID.TID 0000.0001)                 2.841906470085516E+05,      /* I =267 */
(PID.TID 0000.0001)                 2.898778860929753E+05,      /* I =268 */
(PID.TID 0000.0001)                 2.944035815526416E+05,      /* I =269 */
(PID.TID 0000.0001)                 2.977867909042096E+05,      /* I =270 */
(PID.TID 0000.0001)                 3.000380090330854E+05,      /* I =271 */
(PID.TID 0000.0001)     2 @  3.011625828699101E+05,             /* I =272:273 */
(PID.TID 0000.0001)                 3.000380090330854E+05,      /* I =274 */
(PID.TID 0000.0001)                 2.977867909042096E+05,      /* I =275 */
(PID.TID 0000.0001)                 2.944035815526416E+05,      /* I =276 */
(PID.TID 0000.0001)                 2.898778860929753E+05,      /* I =277 */
(PID.TID 0000.0001)                 2.841906470085516E+05,      /* I =278 */
(PID.TID 0000.0001)                 2.773091043277394E+05,      /* I =279 */
(PID.TID 0000.0001)                 2.691790288994575E+05,      /* I =280 */
(PID.TID 0000.0001)                 2.597126963772147E+05,      /* I =281 */
(PID.TID 0000.0001)                 2.487693460283865E+05,      /* I =282 */
(PID.TID 0000.0001)                 2.361211699596122E+05,      /* I =283 */
(PID.TID 0000.0001)                 2.213884732245467E+05,      /* I =284 */
(PID.TID 0000.0001)                 2.038999045536999E+05,      /* I =285 */
(PID.TID 0000.0001)                 1.823321598773926E+05,      /* I =286 */
(PID.TID 0000.0001)                 1.534505834330338E+05,      /* I =287 */
(PID.TID 0000.0001)                 1.009837800879055E+05,      /* I =288 */
(PID.TID 0000.0001)                 2.138410773065497E+05,      /* I =289 */
(PID.TID 0000.0001)                 2.178997870705349E+05,      /* I =290 */
(PID.TID 0000.0001)                 2.249916053111643E+05,      /* I =291 */
(PID.TID 0000.0001)                 2.337827806959134E+05,      /* I =292 */
(PID.TID 0000.0001)                 2.432074113090727E+05,      /* I =293 */
(PID.TID 0000.0001)                 2.525876267557343E+05,      /* I =294 */
(PID.TID 0000.0001)                 2.615348743552910E+05,      /* I =295 */
(PID.TID 0000.0001)                 2.698333765987323E+05,      /* I =296 */
(PID.TID 0000.0001)                 2.773613965982297E+05,      /* I =297 */
(PID.TID 0000.0001)                 2.840465394886363E+05,      /* I =298 */
(PID.TID 0000.0001)                 2.898421973842925E+05,      /* I =299 */
(PID.TID 0000.0001)                 2.947156814824661E+05,      /* I =300 */
(PID.TID 0000.0001)                 2.986425300747283E+05,      /* I =301 */
(PID.TID 0000.0001)                 3.016039986390681E+05,      /* I =302 */
(PID.TID 0000.0001)                 3.035861321652118E+05,      /* I =303 */
(PID.TID 0000.0001)     2 @  3.045796060304602E+05,             /* I =304:305 */
(PID.TID 0000.0001)                 3.035861321652118E+05,      /* I =306 */
(PID.TID 0000.0001)                 3.016039986390681E+05,      /* I =307 */
(PID.TID 0000.0001)                 2.986425300747283E+05,      /* I =308 */
(PID.TID 0000.0001)                 2.947156814824661E+05,      /* I =309 */
(PID.TID 0000.0001)                 2.898421973842925E+05,      /* I =310 */
(PID.TID 0000.0001)                 2.840465394886363E+05,      /* I =311 */
(PID.TID 0000.0001)                 2.773613965982297E+05,      /* I =312 */
(PID.TID 0000.0001)                 2.698333765987323E+05,      /* I =313 */
(PID.TID 0000.0001)                 2.615348743552910E+05,      /* I =314 */
(PID.TID 0000.0001)                 2.525876267557343E+05,      /* I =315 */
(PID.TID 0000.0001)                 2.432074113090727E+05,      /* I =316 */
(PID.TID 0000.0001)                 2.337827806959134E+05,      /* I =317 */
(PID.TID 0000.0001)                 2.249916053111643E+05,      /* I =318 */
(PID.TID 0000.0001)                 2.178997870705349E+05,      /* I =319 */
(PID.TID 0000.0001)                 2.138410773065497E+05,      /* I =320 */
(PID.TID 0000.0001)                 2.648750305193301E+05,      /* I =321 */
(PID.TID 0000.0001)                 2.661181018072810E+05,      /* I =322 */
(PID.TID 0000.0001)                 2.684951411609472E+05,      /* I =323 */
(PID.TID 0000.0001)                 2.718130194543262E+05,      /* I =324 */
(PID.TID 0000.0001)                 2.758327097123360E+05,      /* I =325 */
(PID.TID 0000.0001)                 2.803055238380586E+05,      /* I =326 */
(PID.TID 0000.0001)                 2.849983456747301E+05,      /* I =327 */
(PID.TID 0000.0001)                 2.897064557701324E+05,      /* I =328 */
(PID.TID 0000.0001)                 2.942570946491559E+05,      /* I =329 */
(PID.TID 0000.0001)                 2.985078462652251E+05,      /* I =330 */
(PID.TID 0000.0001)                 3.023429734268671E+05,      /* I =331 */
(PID.TID 0000.0001)                 3.056695262148454E+05,      /* I =332 */
(PID.TID 0000.0001)                 3.084140431300752E+05,      /* I =333 */
(PID.TID 0000.0001)                 3.105200753220973E+05,      /* I =334 */
(PID.TID 0000.0001)                 3.119464819293889E+05,      /* I =335 */
(PID.TID 0000.0001)     2 @  3.126663860714039E+05,             /* I =336:337 */
(PID.TID 0000.0001)                 3.119464819293889E+05,      /* I =338 */
(PID.TID 0000.0001)                 3.105200753220973E+05,      /* I =339 */
(PID.TID 0000.0001)                 3.084140431300752E+05,      /* I =340 */
(PID.TID 0000.0001)                 3.056695262148454E+05,      /* I =341 */
(PID.TID 0000.0001)                 3.023429734268671E+05,      /* I =342 */
(PID.TID 0000.0001)                 2.985078462652251E+05,      /* I =343 */
(PID.TID 0000.0001)                 2.942570946491559E+05,      /* I =344 */
(PID.TID 0000.0001)                 2.897064557701324E+05,      /* I =345 */
(PID.TID 0000.0001)                 2.849983456747301E+05,      /* I =346 */
(PID.TID 0000.0001)                 2.803055238380586E+05,      /* I =347 */
(PID.TID 0000.0001)                 2.758327097123360E+05,      /* I =348 */
(PID.TID 0000.0001)                 2.718130194543262E+05,      /* I =349 */
(PID.TID 0000.0001)                 2.684951411609472E+05,      /* I =350 */
(PID.TID 0000.0001)                 2.661181018072810E+05,      /* I =351 */
(PID.TID 0000.0001)                 2.648750305193301E+05,      /* I =352 */
(PID.TID 0000.0001)                 2.924298293668651E+05,      /* I =353 */
(PID.TID 0000.0001)                 2.930257426072231E+05,      /* I =354 */
(PID.TID 0000.0001)                 2.941867219746503E+05,      /* I =355 */
(PID.TID 0000.0001)                 2.958540382632805E+05,      /* I =356 */
(PID.TID 0000.0001)                 2.979463555053116E+05,      /* I =357 */
(PID.TID 0000.0001)                 3.003662670762532E+05,      /* I =358 */
(PID.TID 0000.0001)                 3.030070166343265E+05,      /* I =359 */
(PID.TID 0000.0001)                 3.057585931291658E+05,      /* I =360 */
(PID.TID 0000.0001)                 3.085127702930367E+05,      /* I =361 */
(PID.TID 0000.0001)                 3.111669994344792E+05,      /* I =362 */
(PID.TID 0000.0001)                 3.136272805687003E+05,      /* I =363 */
(PID.TID 0000.0001)                 3.158102274380121E+05,      /* I =364 */
(PID.TID 0000.0001)                 3.176445436663792E+05,      /* I =365 */
(PID.TID 0000.0001)                 3.190720839296710E+05,      /* I =366 */
(PID.TID 0000.0001)                 3.200486187399661E+05,      /* I =367 */
(PID.TID 0000.0001)     2 @  3.205444100809708E+05,             /* I =368:369 */
(PID.TID 0000.0001)                 3.200486187399661E+05,      /* I =370 */
(PID.TID 0000.0001)                 3.190720839296710E+05,      /* I =371 */
(PID.TID 0000.0001)                 3.176445436663792E+05,      /* I =372 */
(PID.TID 0000.0001)                 3.158102274380121E+05,      /* I =373 */
(PID.TID 0000.0001)                 3.136272805687003E+05,      /* I =374 */
(PID.TID 0000.0001)                 3.111669994344792E+05,      /* I =375 */
(PID.TID 0000.0001)                 3.085127702930367E+05,      /* I =376 */
(PID.TID 0000.0001)                 3.057585931291658E+05,      /* I =377 */
(PID.TID 0000.0001)                 3.030070166343265E+05,      /* I =378 */
(PID.TID 0000.0001)                 3.003662670762532E+05,      /* I =379 */
(PID.TID 0000.0001)                 2.979463555053116E+05,      /* I =380 */
(PID.TID 0000.0001)                 2.958540382632805E+05,      /* I =381 */
(PID.TID 0000.0001)                 2.941867219746503E+05,      /* I =382 */
(PID.TID 0000.0001)                 2.930257426072231E+05,      /* I =383 */
(PID.TID 0000.0001)                 2.924298293668651E+05,      /* I =384 */
(PID.TID 0000.0001)                 3.014246674484008E+05,      /* I =385 */
(PID.TID 0000.0001)                 3.018694497480782E+05,      /* I =386 */
(PID.TID 0000.0001)                 3.027399364062562E+05,      /* I =387 */
(PID.TID 0000.0001)                 3.039990657490951E+05,      /* I =388 */
(PID.TID 0000.0001)                 3.055938607351786E+05,      /* I =389 */
(PID.TID 0000.0001)                 3.074582577767738E+05,      /* I =390 */
(PID.TID 0000.0001)                 3.095164322685570E+05,      /* I =391 */
(PID.TID 0000.0001)                 3.116863538419811E+05,      /* I =392 */
(PID.TID 0000.0001)                 3.138833384868975E+05,      /* I =393 */
(PID.TID 0000.0001)                 3.160234197751047E+05,      /* I =394 */
(PID.TID 0000.0001)                 3.180264208293543E+05,      /* I =395 */
(PID.TID 0000.0001)                 3.198186602283748E+05,      /* I =396 */
(PID.TID 0000.0001)                 3.213352627063766E+05,      /* I =397 */
(PID.TID 0000.0001)                 3.225220686282585E+05,      /* I =398 */
(PID.TID 0000.0001)                 3.233371474853745E+05,      /* I =399 */
(PID.TID 0000.0001)     2 @  3.237519587277332E+05,             /* I =400:401 */
(PID.TID 0000.0001)                 3.233371474853745E+05,      /* I =402 */
(PID.TID 0000.0001)                 3.225220686282585E+05,      /* I =403 */
(PID.TID 0000.0001)                 3.213352627063766E+05,      /* I =404 */
(PID.TID 0000.0001)                 3.198186602283748E+05,      /* I =405 */
(PID.TID 0000.0001)                 3.180264208293543E+05,      /* I =406 */
(PID.TID 0000.0001)                 3.160234197751047E+05,      /* I =407 */
(PID.TID 0000.0001)                 3.138833384868975E+05,      /* I =408 */
(PID.TID 0000.0001)                 3.116863538419811E+05,      /* I =409 */
(PID.TID 0000.0001)                 3.095164322685570E+05,      /* I =410 */
(PID.TID 0000.0001)                 3.074582577767738E+05,      /* I =411 */
(PID.TID 0000.0001)                 3.055938607351786E+05,      /* I =412 */
(PID.TID 0000.0001)                 3.039990657490951E+05,      /* I =413 */
(PID.TID 0000.0001)                 3.027399364062562E+05,      /* I =414 */
(PID.TID 0000.0001)                 3.018694497480782E+05,      /* I =415 */
(PID.TID 0000.0001)                 3.014246674484008E+05,      /* I =416 */
(PID.TID 0000.0001)                 2.924298293668651E+05,      /* I =417 */
(PID.TID 0000.0001)                 2.930257426072231E+05,      /* I =418 */
(PID.TID 0000.0001)                 2.941867219746503E+05,      /* I =419 */
(PID.TID 0000.0001)                 2.958540382632805E+05,      /* I =420 */
(PID.TID 0000.0001)                 2.979463555053116E+05,      /* I =421 */
(PID.TID 0000.0001)                 3.003662670762532E+05,      /* I =422 */
(PID.TID 0000.0001)                 3.030070166343265E+05,      /* I =423 */
(PID.TID 0000.0001)                 3.057585931291658E+05,      /* I =424 */
(PID.TID 0000.0001)                 3.085127702930367E+05,      /* I =425 */
(PID.TID 0000.0001)                 3.111669994344792E+05,      /* I =426 */
(PID.TID 0000.0001)                 3.136272805687003E+05,      /* I =427 */
(PID.TID 0000.0001)                 3.158102274380121E+05,      /* I =428 */
(PID.TID 0000.0001)                 3.176445436663792E+05,      /* I =429 */
(PID.TID 0000.0001)                 3.190720839296710E+05,      /* I =430 */
(PID.TID 0000.0001)                 3.200486187399661E+05,      /* I =431 */
(PID.TID 0000.0001)     2 @  3.205444100809708E+05,             /* I =432:433 */
(PID.TID 0000.0001)                 3.200486187399661E+05,      /* I =434 */
(PID.TID 0000.0001)                 3.190720839296710E+05,      /* I =435 */
(PID.TID 0000.0001)                 3.176445436663792E+05,      /* I =436 */
(PID.TID 0000.0001)                 3.158102274380121E+05,      /* I =437 */
(PID.TID 0000.0001)                 3.136272805687003E+05,      /* I =438 */
(PID.TID 0000.0001)                 3.111669994344792E+05,      /* I =439 */
(PID.TID 0000.0001)                 3.085127702930367E+05,      /* I =440 */
(PID.TID 0000.0001)                 3.057585931291658E+05,      /* I =441 */
(PID.TID 0000.0001)                 3.030070166343265E+05,      /* I =442 */
(PID.TID 0000.0001)                 3.003662670762532E+05,      /* I =443 */
(PID.TID 0000.0001)                 2.979463555053116E+05,      /* I =444 */
(PID.TID 0000.0001)                 2.958540382632805E+05,      /* I =445 */
(PID.TID 0000.0001)                 2.941867219746503E+05,      /* I =446 */
(PID.TID 0000.0001)                 2.930257426072231E+05,      /* I =447 */
(PID.TID 0000.0001)                 2.924298293668651E+05,      /* I =448 */
(PID.TID 0000.0001)                 2.648750305193301E+05,      /* I =449 */
(PID.TID 0000.0001)                 2.661181018072810E+05,      /* I =450 */
(PID.TID 0000.0001)                 2.684951411609472E+05,      /* I =451 */
(PID.TID 0000.0001)                 2.718130194543262E+05,      /* I =452 */
(PID.TID 0000.0001)                 2.758327097123360E+05,      /* I =453 */
(PID.TID 0000.0001)                 2.803055238380586E+05,      /* I =454 */
(PID.TID 0000.0001)                 2.849983456747301E+05,      /* I =455 */
(PID.TID 0000.0001)                 2.897064557701324E+05,      /* I =456 */
(PID.TID 0000.0001)                 2.942570946491559E+05,      /* I =457 */
(PID.TID 0000.0001)                 2.985078462652251E+05,      /* I =458 */
(PID.TID 0000.0001)                 3.023429734268671E+05,      /* I =459 */
(PID.TID 0000.0001)                 3.056695262148454E+05,      /* I =460 */
(PID.TID 0000.0001)                 3.084140431300752E+05,      /* I =461 */
(PID.TID 0000.0001)                 3.105200753220973E+05,      /* I =462 */
(PID.TID 0000.0001)                 3.119464819293889E+05,      /* I =463 */
(PID.TID 0000.0001)     2 @  3.126663860714039E+05,             /* I =464:465 */
(PID.TID 0000.0001)                 3.119464819293889E+05,      /* I =466 */
(PID.TID 0000.0001)                 3.105200753220973E+05,      /* I =467 */
(PID.TID 0000.0001)                 3.084140431300752E+05,      /* I =468 */
(PID.TID 0000.0001)                 3.056695262148454E+05,      /* I =469 */
(PID.TID 0000.0001)                 3.023429734268671E+05,      /* I =470 */
(PID.TID 0000.0001)                 2.985078462652251E+05,      /* I =471 */
(PID.TID 0000.0001)                 2.942570946491559E+05,      /* I =472 */
(PID.TID 0000.0001)                 2.897064557701324E+05,      /* I =473 */
(PID.TID 0000.0001)                 2.849983456747301E+05,      /* I =474 */
(PID.TID 0000.0001)                 2.803055238380586E+05,      /* I =475 */
(PID.TID 0000.0001)                 2.758327097123360E+05,      /* I =476 */
(PID.TID 0000.0001)                 2.718130194543262E+05,      /* I =477 */
(PID.TID 0000.0001)                 2.684951411609472E+05,      /* I =478 */
(PID.TID 0000.0001)                 2.661181018072810E+05,      /* I =479 */
(PID.TID 0000.0001)                 2.648750305193301E+05,      /* I =480 */
(PID.TID 0000.0001)                 2.138410773065497E+05,      /* I =481 */
(PID.TID 0000.0001)                 2.178997870705349E+05,      /* I =482 */
(PID.TID 0000.0001)                 2.249916053111643E+05,      /* I =483 */
(PID.TID 0000.0001)                 2.337827806959134E+05,      /* I =484 */
(PID.TID 0000.0001)                 2.432074113090727E+05,      /* I =485 */
(PID.TID 0000.0001)                 2.525876267557343E+05,      /* I =486 */
(PID.TID 0000.0001)                 2.615348743552910E+05,      /* I =487 */
(PID.TID 0000.0001)                 2.698333765987323E+05,      /* I =488 */
(PID.TID 0000.0001)                 2.773613965982297E+05,      /* I =489 */
(PID.TID 0000.0001)                 2.840465394886363E+05,      /* I =490 */
(PID.TID 0000.0001)                 2.898421973842925E+05,      /* I =491 */
(PID.TID 0000.0001)                 2.947156814824661E+05,      /* I =492 */
(PID.TID 0000.0001)                 2.986425300747283E+05,      /* I =493 */
(PID.TID 0000.0001)                 3.016039986390681E+05,      /* I =494 */
(PID.TID 0000.0001)                 3.035861321652118E+05,      /* I =495 */
(PID.TID 0000.0001)     2 @  3.045796060304602E+05,             /* I =496:497 */
(PID.TID 0000.0001)                 3.035861321652118E+05,      /* I =498 */
(PID.TID 0000.0001)                 3.016039986390681E+05,      /* I =499 */
(PID.TID 0000.0001)                 2.986425300747283E+05,      /* I =500 */
(PID.TID 0000.0001)                 2.947156814824661E+05,      /* I =501 */
(PID.TID 0000.0001)                 2.898421973842925E+05,      /* I =502 */
(PID.TID 0000.0001)                 2.840465394886363E+05,      /* I =503 */
(PID.TID 0000.0001)                 2.773613965982297E+05,      /* I =504 */
(PID.TID 0000.0001)                 2.698333765987323E+05,      /* I =505 */
(PID.TID 0000.0001)                 2.615348743552910E+05,      /* I =506 */
(PID.TID 0000.0001)                 2.525876267557343E+05,      /* I =507 */
(PID.TID 0000.0001)                 2.432074113090727E+05,      /* I =508 */
(PID.TID 0000.0001)                 2.337827806959134E+05,      /* I =509 */
(PID.TID 0000.0001)                 2.249916053111643E+05,      /* I =510 */
(PID.TID 0000.0001)                 2.178997870705349E+05,      /* I =511 */
(PID.TID 0000.0001)                 2.138410773065497E+05,      /* I =512 */
(PID.TID 0000.0001)                 1.009837800879055E+05,      /* I =513 */
(PID.TID 0000.0001)                 1.534505834330338E+05,      /* I =514 */
(PID.TID 0000.0001)                 1.823321598773926E+05,      /* I =515 */
(PID.TID 0000.0001)                 2.038999045536999E+05,      /* I =516 */
(PID.TID 0000.0001)                 2.213884732245467E+05,      /* I =517 */
(PID.TID 0000.0001)                 2.361211699596122E+05,      /* I =518 */
(PID.TID 0000.0001)                 2.487693460283865E+05,      /* I =519 */
(PID.TID 0000.0001)                 2.597126963772147E+05,      /* I =520 */
(PID.TID 0000.0001)                 2.691790288994575E+05,      /* I =521 */
(PID.TID 0000.0001)                 2.773091043277394E+05,      /* I =522 */
(PID.TID 0000.0001)                 2.841906470085516E+05,      /* I =523 */
(PID.TID 0000.0001)                 2.898778860929753E+05,      /* I =524 */
(PID.TID 0000.0001)                 2.944035815526416E+05,      /* I =525 */
(PID.TID 0000.0001)                 2.977867909042096E+05,      /* I =526 */
(PID.TID 0000.0001)                 3.000380090330854E+05,      /* I =527 */
(PID.TID 0000.0001)     2 @  3.011625828699101E+05,             /* I =528:529 */
(PID.TID 0000.0001)                 3.000380090330854E+05,      /* I =530 */
(PID.TID 0000.0001)                 2.977867909042096E+05,      /* I =531 */
(PID.TID 0000.0001)                 2.944035815526416E+05,      /* I =532 */
(PID.TID 0000.0001)                 2.898778860929753E+05,      /* I =533 */
(PID.TID 0000.0001)                 2.841906470085516E+05,      /* I =534 */
(PID.TID 0000.0001)                 2.773091043277394E+05,      /* I =535 */
(PID.TID 0000.0001)                 2.691790288994575E+05,      /* I =536 */
(PID.TID 0000.0001)                 2.597126963772147E+05,      /* I =537 */
(PID.TID 0000.0001)                 2.487693460283865E+05,      /* I =538 */
(PID.TID 0000.0001)                 2.361211699596122E+05,      /* I =539 */
(PID.TID 0000.0001)                 2.213884732245467E+05,      /* I =540 */
(PID.TID 0000.0001)                 2.038999045536999E+05,      /* I =541 */
(PID.TID 0000.0001)                 1.823321598773926E+05,      /* I =542 */
(PID.TID 0000.0001)                 1.534505834330338E+05,      /* I =543 */
(PID.TID 0000.0001)                 1.009837800879055E+05,      /* I =544 */
(PID.TID 0000.0001)                 2.138410773065497E+05,      /* I =545 */
(PID.TID 0000.0001)                 2.178997870705349E+05,      /* I =546 */
(PID.TID 0000.0001)                 2.249916053111643E+05,      /* I =547 */
(PID.TID 0000.0001)                 2.337827806959134E+05,      /* I =548 */
(PID.TID 0000.0001)                 2.432074113090727E+05,      /* I =549 */
(PID.TID 0000.0001)                 2.525876267557343E+05,      /* I =550 */
(PID.TID 0000.0001)                 2.615348743552910E+05,      /* I =551 */
(PID.TID 0000.0001)                 2.698333765987323E+05,      /* I =552 */
(PID.TID 0000.0001)                 2.773613965982297E+05,      /* I =553 */
(PID.TID 0000.0001)                 2.840465394886363E+05,      /* I =554 */
(PID.TID 0000.0001)                 2.898421973842925E+05,      /* I =555 */
(PID.TID 0000.0001)                 2.947156814824661E+05,      /* I =556 */
(PID.TID 0000.0001)                 2.986425300747283E+05,      /* I =557 */
(PID.TID 0000.0001)                 3.016039986390681E+05,      /* I =558 */
(PID.TID 0000.0001)                 3.035861321652118E+05,      /* I =559 */
(PID.TID 0000.0001)     2 @  3.045796060304602E+05,             /* I =560:561 */
(PID.TID 0000.0001)                 3.035861321652118E+05,      /* I =562 */
(PID.TID 0000.0001)                 3.016039986390681E+05,      /* I =563 */
(PID.TID 0000.0001)                 2.986425300747283E+05,      /* I =564 */
(PID.TID 0000.0001)                 2.947156814824661E+05,      /* I =565 */
(PID.TID 0000.0001)                 2.898421973842925E+05,      /* I =566 */
(PID.TID 0000.0001)                 2.840465394886363E+05,      /* I =567 */
(PID.TID 0000.0001)                 2.773613965982297E+05,      /* I =568 */
(PID.TID 0000.0001)                 2.698333765987323E+05,      /* I =569 */
(PID.TID 0000.0001)                 2.615348743552910E+05,      /* I =570 */
(PID.TID 0000.0001)                 2.525876267557343E+05,      /* I =571 */
(PID.TID 0000.0001)                 2.432074113090727E+05,      /* I =572 */
(PID.TID 0000.0001)                 2.337827806959134E+05,      /* I =573 */
(PID.TID 0000.0001)                 2.249916053111643E+05,      /* I =574 */
(PID.TID 0000.0001)                 2.178997870705349E+05,      /* I =575 */
(PID.TID 0000.0001)                 2.138410773065497E+05,      /* I =576 */
(PID.TID 0000.0001)                 2.648750305193301E+05,      /* I =577 */
(PID.TID 0000.0001)                 2.661181018072810E+05,      /* I =578 */
(PID.TID 0000.0001)                 2.684951411609472E+05,      /* I =579 */
(PID.TID 0000.0001)                 2.718130194543262E+05,      /* I =580 */
(PID.TID 0000.0001)                 2.758327097123360E+05,      /* I =581 */
(PID.TID 0000.0001)                 2.803055238380586E+05,      /* I =582 */
(PID.TID 0000.0001)                 2.849983456747301E+05,      /* I =583 */
(PID.TID 0000.0001)                 2.897064557701324E+05,      /* I =584 */
(PID.TID 0000.0001)                 2.942570946491559E+05,      /* I =585 */
(PID.TID 0000.0001)                 2.985078462652251E+05,      /* I =586 */
(PID.TID 0000.0001)                 3.023429734268671E+05,      /* I =587 */
(PID.TID 0000.0001)                 3.056695262148454E+05,      /* I =588 */
(PID.TID 0000.0001)                 3.084140431300752E+05,      /* I =589 */
(PID.TID 0000.0001)                 3.105200753220973E+05,      /* I =590 */
(PID.TID 0000.0001)                 3.119464819293889E+05,      /* I =591 */
(PID.TID 0000.0001)     2 @  3.126663860714039E+05,             /* I =592:593 */
(PID.TID 0000.0001)                 3.119464819293889E+05,      /* I =594 */
(PID.TID 0000.0001)                 3.105200753220973E+05,      /* I =595 */
(PID.TID 0000.0001)                 3.084140431300752E+05,      /* I =596 */
(PID.TID 0000.0001)                 3.056695262148454E+05,      /* I =597 */
(PID.TID 0000.0001)                 3.023429734268671E+05,      /* I =598 */
(PID.TID 0000.0001)                 2.985078462652251E+05,      /* I =599 */
(PID.TID 0000.0001)                 2.942570946491559E+05,      /* I =600 */
(PID.TID 0000.0001)                 2.897064557701324E+05,      /* I =601 */
(PID.TID 0000.0001)                 2.849983456747301E+05,      /* I =602 */
(PID.TID 0000.0001)                 2.803055238380586E+05,      /* I =603 */
(PID.TID 0000.0001)                 2.758327097123360E+05,      /* I =604 */
(PID.TID 0000.0001)                 2.718130194543262E+05,      /* I =605 */
(PID.TID 0000.0001)                 2.684951411609472E+05,      /* I =606 */
(PID.TID 0000.0001)                 2.661181018072810E+05,      /* I =607 */
(PID.TID 0000.0001)                 2.648750305193301E+05,      /* I =608 */
(PID.TID 0000.0001)                 2.924298293668651E+05,      /* I =609 */
(PID.TID 0000.0001)                 2.930257426072231E+05,      /* I =610 */
(PID.TID 0000.0001)                 2.941867219746503E+05,      /* I =611 */
(PID.TID 0000.0001)                 2.958540382632805E+05,      /* I =612 */
(PID.TID 0000.0001)                 2.979463555053116E+05,      /* I =613 */
(PID.TID 0000.0001)                 3.003662670762532E+05,      /* I =614 */
(PID.TID 0000.0001)                 3.030070166343265E+05,      /* I =615 */
(PID.TID 0000.0001)                 3.057585931291658E+05,      /* I =616 */
(PID.TID 0000.0001)                 3.085127702930367E+05,      /* I =617 */
(PID.TID 0000.0001)                 3.111669994344792E+05,      /* I =618 */
(PID.TID 0000.0001)                 3.136272805687003E+05,      /* I =619 */
(PID.TID 0000.0001)                 3.158102274380121E+05,      /* I =620 */
(PID.TID 0000.0001)                 3.176445436663792E+05,      /* I =621 */
(PID.TID 0000.0001)                 3.190720839296710E+05,      /* I =622 */
(PID.TID 0000.0001)                 3.200486187399661E+05,      /* I =623 */
(PID.TID 0000.0001)     2 @  3.205444100809708E+05,             /* I =624:625 */
(PID.TID 0000.0001)                 3.200486187399661E+05,      /* I =626 */
(PID.TID 0000.0001)                 3.190720839296710E+05,      /* I =627 */
(PID.TID 0000.0001)                 3.176445436663792E+05,      /* I =628 */
(PID.TID 0000.0001)                 3.158102274380121E+05,      /* I =629 */
(PID.TID 0000.0001)                 3.136272805687003E+05,      /* I =630 */
(PID.TID 0000.0001)                 3.111669994344792E+05,      /* I =631 */
(PID.TID 0000.0001)                 3.085127702930367E+05,      /* I =632 */
(PID.TID 0000.0001)                 3.057585931291658E+05,      /* I =633 */
(PID.TID 0000.0001)                 3.030070166343265E+05,      /* I =634 */
(PID.TID 0000.0001)                 3.003662670762532E+05,      /* I =635 */
(PID.TID 0000.0001)                 2.979463555053116E+05,      /* I =636 */
(PID.TID 0000.0001)                 2.958540382632805E+05,      /* I =637 */
(PID.TID 0000.0001)                 2.941867219746503E+05,      /* I =638 */
(PID.TID 0000.0001)                 2.930257426072231E+05,      /* I =639 */
(PID.TID 0000.0001)                 2.924298293668651E+05,      /* I =640 */
(PID.TID 0000.0001)                 3.014246674484008E+05,      /* I =641 */
(PID.TID 0000.0001)                 3.018694497480782E+05,      /* I =642 */
(PID.TID 0000.0001)                 3.027399364062562E+05,      /* I =643 */
(PID.TID 0000.0001)                 3.039990657490951E+05,      /* I =644 */
(PID.TID 0000.0001)                 3.055938607351786E+05,      /* I =645 */
(PID.TID 0000.0001)                 3.074582577767738E+05,      /* I =646 */
(PID.TID 0000.0001)                 3.095164322685570E+05,      /* I =647 */
(PID.TID 0000.0001)                 3.116863538419811E+05,      /* I =648 */
(PID.TID 0000.0001)                 3.138833384868975E+05,      /* I =649 */
(PID.TID 0000.0001)                 3.160234197751047E+05,      /* I =650 */
(PID.TID 0000.0001)                 3.180264208293543E+05,      /* I =651 */
(PID.TID 0000.0001)                 3.198186602283748E+05,      /* I =652 */
(PID.TID 0000.0001)                 3.213352627063766E+05,      /* I =653 */
(PID.TID 0000.0001)                 3.225220686282585E+05,      /* I =654 */
(PID.TID 0000.0001)                 3.233371474853745E+05,      /* I =655 */
(PID.TID 0000.0001)     2 @  3.237519587277332E+05,             /* I =656:657 */
(PID.TID 0000.0001)                 3.233371474853745E+05,      /* I =658 */
(PID.TID 0000.0001)                 3.225220686282585E+05,      /* I =659 */
(PID.TID 0000.0001)                 3.213352627063766E+05,      /* I =660 */
(PID.TID 0000.0001)                 3.198186602283748E+05,      /* I =661 */
(PID.TID 0000.0001)                 3.180264208293543E+05,      /* I =662 */
(PID.TID 0000.0001)                 3.160234197751047E+05,      /* I =663 */
(PID.TID 0000.0001)                 3.138833384868975E+05,      /* I =664 */
(PID.TID 0000.0001)                 3.116863538419811E+05,      /* I =665 */
(PID.TID 0000.0001)                 3.095164322685570E+05,      /* I =666 */
(PID.TID 0000.0001)                 3.074582577767738E+05,      /* I =667 */
(PID.TID 0000.0001)                 3.055938607351786E+05,      /* I =668 */
(PID.TID 0000.0001)                 3.039990657490951E+05,      /* I =669 */
(PID.TID 0000.0001)                 3.027399364062562E+05,      /* I =670 */
(PID.TID 0000.0001)                 3.018694497480782E+05,      /* I =671 */
(PID.TID 0000.0001)                 3.014246674484008E+05,      /* I =672 */
(PID.TID 0000.0001)                 2.924298293668651E+05,      /* I =673 */
(PID.TID 0000.0001)                 2.930257426072231E+05,      /* I =674 */
(PID.TID 0000.0001)                 2.941867219746503E+05,      /* I =675 */
(PID.TID 0000.0001)                 2.958540382632805E+05,      /* I =676 */
(PID.TID 0000.0001)                 2.979463555053116E+05,      /* I =677 */
(PID.TID 0000.0001)                 3.003662670762532E+05,      /* I =678 */
(PID.TID 0000.0001)                 3.030070166343265E+05,      /* I =679 */
(PID.TID 0000.0001)                 3.057585931291658E+05,      /* I =680 */
(PID.TID 0000.0001)                 3.085127702930367E+05,      /* I =681 */
(PID.TID 0000.0001)                 3.111669994344792E+05,      /* I =682 */
(PID.TID 0000.0001)                 3.136272805687003E+05,      /* I =683 */
(PID.TID 0000.0001)                 3.158102274380121E+05,      /* I =684 */
(PID.TID 0000.0001)                 3.176445436663792E+05,      /* I =685 */
(PID.TID 0000.0001)                 3.190720839296710E+05,      /* I =686 */
(PID.TID 0000.0001)                 3.200486187399661E+05,      /* I =687 */
(PID.TID 0000.0001)     2 @  3.205444100809708E+05,             /* I =688:689 */
(PID.TID 0000.0001)                 3.200486187399661E+05,      /* I =690 */
(PID.TID 0000.0001)                 3.190720839296710E+05,      /* I =691 */
(PID.TID 0000.0001)                 3.176445436663792E+05,      /* I =692 */
(PID.TID 0000.0001)                 3.158102274380121E+05,      /* I =693 */
(PID.TID 0000.0001)                 3.136272805687003E+05,      /* I =694 */
(PID.TID 0000.0001)                 3.111669994344792E+05,      /* I =695 */
(PID.TID 0000.0001)                 3.085127702930367E+05,      /* I =696 */
(PID.TID 0000.0001)                 3.057585931291658E+05,      /* I =697 */
(PID.TID 0000.0001)                 3.030070166343265E+05,      /* I =698 */
(PID.TID 0000.0001)                 3.003662670762532E+05,      /* I =699 */
(PID.TID 0000.0001)                 2.979463555053116E+05,      /* I =700 */
(PID.TID 0000.0001)                 2.958540382632805E+05,      /* I =701 */
(PID.TID 0000.0001)                 2.941867219746503E+05,      /* I =702 */
(PID.TID 0000.0001)                 2.930257426072231E+05,      /* I =703 */
(PID.TID 0000.0001)                 2.924298293668651E+05,      /* I =704 */
(PID.TID 0000.0001)                 2.648750305193301E+05,      /* I =705 */
(PID.TID 0000.0001)                 2.661181018072810E+05,      /* I =706 */
(PID.TID 0000.0001)                 2.684951411609472E+05,      /* I =707 */
(PID.TID 0000.0001)                 2.718130194543262E+05,      /* I =708 */
(PID.TID 0000.0001)                 2.758327097123360E+05,      /* I =709 */
(PID.TID 0000.0001)                 2.803055238380586E+05,      /* I =710 */
(PID.TID 0000.0001)                 2.849983456747301E+05,      /* I =711 */
(PID.TID 0000.0001)                 2.897064557701324E+05,      /* I =712 */
(PID.TID 0000.0001)                 2.942570946491559E+05,      /* I =713 */
(PID.TID 0000.0001)                 2.985078462652251E+05,      /* I =714 */
(PID.TID 0000.0001)                 3.023429734268671E+05,      /* I =715 */
(PID.TID 0000.0001)                 3.056695262148454E+05,      /* I =716 */
(PID.TID 0000.0001)                 3.084140431300752E+05,      /* I =717 */
(PID.TID 0000.0001)                 3.105200753220973E+05,      /* I =718 */
(PID.TID 0000.0001)                 3.119464819293889E+05,      /* I =719 */
(PID.TID 0000.0001)     2 @  3.126663860714039E+05,             /* I =720:721 */
(PID.TID 0000.0001)                 3.119464819293889E+05,      /* I =722 */
(PID.TID 0000.0001)                 3.105200753220973E+05,      /* I =723 */
(PID.TID 0000.0001)                 3.084140431300752E+05,      /* I =724 */
(PID.TID 0000.0001)                 3.056695262148454E+05,      /* I =725 */
(PID.TID 0000.0001)                 3.023429734268671E+05,      /* I =726 */
(PID.TID 0000.0001)                 2.985078462652251E+05,      /* I =727 */
(PID.TID 0000.0001)                 2.942570946491559E+05,      /* I =728 */
(PID.TID 0000.0001)                 2.897064557701324E+05,      /* I =729 */
(PID.TID 0000.0001)                 2.849983456747301E+05,      /* I =730 */
(PID.TID 0000.0001)                 2.803055238380586E+05,      /* I =731 */
(PID.TID 0000.0001)                 2.758327097123360E+05,      /* I =732 */
(PID.TID 0000.0001)                 2.718130194543262E+05,      /* I =733 */
(PID.TID 0000.0001)                 2.684951411609472E+05,      /* I =734 */
(PID.TID 0000.0001)                 2.661181018072810E+05,      /* I =735 */
(PID.TID 0000.0001)                 2.648750305193301E+05,      /* I =736 */
(PID.TID 0000.0001)                 2.138410773065497E+05,      /* I =737 */
(PID.TID 0000.0001)                 2.178997870705349E+05,      /* I =738 */
(PID.TID 0000.0001)                 2.249916053111643E+05,      /* I =739 */
(PID.TID 0000.0001)                 2.337827806959134E+05,      /* I =740 */
(PID.TID 0000.0001)                 2.432074113090727E+05,      /* I =741 */
(PID.TID 0000.0001)                 2.525876267557343E+05,      /* I =742 */
(PID.TID 0000.0001)                 2.615348743552910E+05,      /* I =743 */
(PID.TID 0000.0001)                 2.698333765987323E+05,      /* I =744 */
(PID.TID 0000.0001)                 2.773613965982297E+05,      /* I =745 */
(PID.TID 0000.0001)                 2.840465394886363E+05,      /* I =746 */
(PID.TID 0000.0001)                 2.898421973842925E+05,      /* I =747 */
(PID.TID 0000.0001)                 2.947156814824661E+05,      /* I =748 */
(PID.TID 0000.0001)                 2.986425300747283E+05,      /* I =749 */
(PID.TID 0000.0001)                 3.016039986390681E+05,      /* I =750 */
(PID.TID 0000.0001)                 3.035861321652118E+05,      /* I =751 */
(PID.TID 0000.0001)     2 @  3.045796060304602E+05,             /* I =752:753 */
(PID.TID 0000.0001)                 3.035861321652118E+05,      /* I =754 */
(PID.TID 0000.0001)                 3.016039986390681E+05,      /* I =755 */
(PID.TID 0000.0001)                 2.986425300747283E+05,      /* I =756 */
(PID.TID 0000.0001)                 2.947156814824661E+05,      /* I =757 */
(PID.TID 0000.0001)                 2.898421973842925E+05,      /* I =758 */
(PID.TID 0000.0001)                 2.840465394886363E+05,      /* I =759 */
(PID.TID 0000.0001)                 2.773613965982297E+05,      /* I =760 */
(PID.TID 0000.0001)                 2.698333765987323E+05,      /* I =761 */
(PID.TID 0000.0001)                 2.615348743552910E+05,      /* I =762 */
(PID.TID 0000.0001)                 2.525876267557343E+05,      /* I =763 */
(PID.TID 0000.0001)                 2.432074113090727E+05,      /* I =764 */
(PID.TID 0000.0001)                 2.337827806959134E+05,      /* I =765 */
(PID.TID 0000.0001)                 2.249916053111643E+05,      /* I =766 */
(PID.TID 0000.0001)                 2.178997870705349E+05,      /* I =767 */
(PID.TID 0000.0001)                 2.138410773065497E+05,      /* I =768 */
(PID.TID 0000.0001)                 1.009837800879055E+05,      /* I =769 */
(PID.TID 0000.0001)                 1.534505834330338E+05,      /* I =770 */
(PID.TID 0000.0001)                 1.823321598773926E+05,      /* I =771 */
(PID.TID 0000.0001)                 2.038999045536999E+05,      /* I =772 */
(PID.TID 0000.0001)                 2.213884732245467E+05,      /* I =773 */
(PID.TID 0000.0001)                 2.361211699596122E+05,      /* I =774 */
(PID.TID 0000.0001)                 2.487693460283865E+05,      /* I =775 */
(PID.TID 0000.0001)                 2.597126963772147E+05,      /* I =776 */
(PID.TID 0000.0001)                 2.691790288994575E+05,      /* I =777 */
(PID.TID 0000.0001)                 2.773091043277394E+05,      /* I =778 */
(PID.TID 0000.0001)                 2.841906470085516E+05,      /* I =779 */
(PID.TID 0000.0001)                 2.898778860929753E+05,      /* I =780 */
(PID.TID 0000.0001)                 2.944035815526416E+05,      /* I =781 */
(PID.TID 0000.0001)                 2.977867909042096E+05,      /* I =782 */
(PID.TID 0000.0001)                 3.000380090330854E+05,      /* I =783 */
(PID.TID 0000.0001)     2 @  3.011625828699101E+05,             /* I =784:785 */
(PID.TID 0000.0001)                 3.000380090330854E+05,      /* I =786 */
(PID.TID 0000.0001)                 2.977867909042096E+05,      /* I =787 */
(PID.TID 0000.0001)                 2.944035815526416E+05,      /* I =788 */
(PID.TID 0000.0001)                 2.898778860929753E+05,      /* I =789 */
(PID.TID 0000.0001)                 2.841906470085516E+05,      /* I =790 */
(PID.TID 0000.0001)                 2.773091043277394E+05,      /* I =791 */
(PID.TID 0000.0001)                 2.691790288994575E+05,      /* I =792 */
(PID.TID 0000.0001)                 2.597126963772147E+05,      /* I =793 */
(PID.TID 0000.0001)                 2.487693460283865E+05,      /* I =794 */
(PID.TID 0000.0001)                 2.361211699596122E+05,      /* I =795 */
(PID.TID 0000.0001)                 2.213884732245467E+05,      /* I =796 */
(PID.TID 0000.0001)                 2.038999045536999E+05,      /* I =797 */
(PID.TID 0000.0001)                 1.823321598773926E+05,      /* I =798 */
(PID.TID 0000.0001)                 1.534505834330338E+05,      /* I =799 */
(PID.TID 0000.0001)                 1.009837800879055E+05,      /* I =800 */
(PID.TID 0000.0001)                 2.138410773065497E+05,      /* I =801 */
(PID.TID 0000.0001)                 2.178997870705349E+05,      /* I =802 */
(PID.TID 0000.0001)                 2.249916053111643E+05,      /* I =803 */
(PID.TID 0000.0001)                 2.337827806959134E+05,      /* I =804 */
(PID.TID 0000.0001)                 2.432074113090727E+05,      /* I =805 */
(PID.TID 0000.0001)                 2.525876267557343E+05,      /* I =806 */
(PID.TID 0000.0001)                 2.615348743552910E+05,      /* I =807 */
(PID.TID 0000.0001)                 2.698333765987323E+05,      /* I =808 */
(PID.TID 0000.0001)                 2.773613965982297E+05,      /* I =809 */
(PID.TID 0000.0001)                 2.840465394886363E+05,      /* I =810 */
(PID.TID 0000.0001)                 2.898421973842925E+05,      /* I =811 */
(PID.TID 0000.0001)                 2.947156814824661E+05,      /* I =812 */
(PID.TID 0000.0001)                 2.986425300747283E+05,      /* I =813 */
(PID.TID 0000.0001)                 3.016039986390681E+05,      /* I =814 */
(PID.TID 0000.0001)                 3.035861321652118E+05,      /* I =815 */
(PID.TID 0000.0001)     2 @  3.045796060304602E+05,             /* I =816:817 */
(PID.TID 0000.0001)                 3.035861321652118E+05,      /* I =818 */
(PID.TID 0000.0001)                 3.016039986390681E+05,      /* I =819 */
(PID.TID 0000.0001)                 2.986425300747283E+05,      /* I =820 */
(PID.TID 0000.0001)                 2.947156814824661E+05,      /* I =821 */
(PID.TID 0000.0001)                 2.898421973842925E+05,      /* I =822 */
(PID.TID 0000.0001)                 2.840465394886363E+05,      /* I =823 */
(PID.TID 0000.0001)                 2.773613965982297E+05,      /* I =824 */
(PID.TID 0000.0001)                 2.698333765987323E+05,      /* I =825 */
(PID.TID 0000.0001)                 2.615348743552910E+05,      /* I =826 */
(PID.TID 0000.0001)                 2.525876267557343E+05,      /* I =827 */
(PID.TID 0000.0001)                 2.432074113090727E+05,      /* I =828 */
(PID.TID 0000.0001)                 2.337827806959134E+05,      /* I =829 */
(PID.TID 0000.0001)                 2.249916053111643E+05,      /* I =830 */
(PID.TID 0000.0001)                 2.178997870705349E+05,      /* I =831 */
(PID.TID 0000.0001)                 2.138410773065497E+05,      /* I =832 */
(PID.TID 0000.0001)                 2.648750305193301E+05,      /* I =833 */
(PID.TID 0000.0001)                 2.661181018072810E+05,      /* I =834 */
(PID.TID 0000.0001)                 2.684951411609472E+05,      /* I =835 */
(PID.TID 0000.0001)                 2.718130194543262E+05,      /* I =836 */
(PID.TID 0000.0001)                 2.758327097123360E+05,      /* I =837 */
(PID.TID 0000.0001)                 2.803055238380586E+05,      /* I =838 */
(PID.TID 0000.0001)                 2.849983456747301E+05,      /* I =839 */
(PID.TID 0000.0001)                 2.897064557701324E+05,      /* I =840 */
(PID.TID 0000.0001)                 2.942570946491559E+05,      /* I =841 */
(PID.TID 0000.0001)                 2.985078462652251E+05,      /* I =842 */
(PID.TID 0000.0001)                 3.023429734268671E+05,      /* I =843 */
(PID.TID 0000.0001)                 3.056695262148454E+05,      /* I =844 */
(PID.TID 0000.0001)                 3.084140431300752E+05,      /* I =845 */
(PID.TID 0000.0001)                 3.105200753220973E+05,      /* I =846 */
(PID.TID 0000.0001)                 3.119464819293889E+05,      /* I =847 */
(PID.TID 0000.0001)     2 @  3.126663860714039E+05,             /* I =848:849 */
(PID.TID 0000.0001)                 3.119464819293889E+05,      /* I =850 */
(PID.TID 0000.0001)                 3.105200753220973E+05,      /* I =851 */
(PID.TID 0000.0001)                 3.084140431300752E+05,      /* I =852 */
(PID.TID 0000.0001)                 3.056695262148454E+05,      /* I =853 */
(PID.TID 0000.0001)                 3.023429734268671E+05,      /* I =854 */
(PID.TID 0000.0001)                 2.985078462652251E+05,      /* I =855 */
(PID.TID 0000.0001)                 2.942570946491559E+05,      /* I =856 */
(PID.TID 0000.0001)                 2.897064557701324E+05,      /* I =857 */
(PID.TID 0000.0001)                 2.849983456747301E+05,      /* I =858 */
(PID.TID 0000.0001)                 2.803055238380586E+05,      /* I =859 */
(PID.TID 0000.0001)                 2.758327097123360E+05,      /* I =860 */
(PID.TID 0000.0001)                 2.718130194543262E+05,      /* I =861 */
(PID.TID 0000.0001)                 2.684951411609472E+05,      /* I =862 */
(PID.TID 0000.0001)                 2.661181018072810E+05,      /* I =863 */
(PID.TID 0000.0001)                 2.648750305193301E+05,      /* I =864 */
(PID.TID 0000.0001)                 2.924298293668651E+05,      /* I =865 */
(PID.TID 0000.0001)                 2.930257426072231E+05,      /* I =866 */
(PID.TID 0000.0001)                 2.941867219746503E+05,      /* I =867 */
(PID.TID 0000.0001)                 2.958540382632805E+05,      /* I =868 */
(PID.TID 0000.0001)                 2.979463555053116E+05,      /* I =869 */
(PID.TID 0000.0001)                 3.003662670762532E+05,      /* I =870 */
(PID.TID 0000.0001)                 3.030070166343265E+05,      /* I =871 */
(PID.TID 0000.0001)                 3.057585931291658E+05,      /* I =872 */
(PID.TID 0000.0001)                 3.085127702930367E+05,      /* I =873 */
(PID.TID 0000.0001)                 3.111669994344792E+05,      /* I =874 */
(PID.TID 0000.0001)                 3.136272805687003E+05,      /* I =875 */
(PID.TID 0000.0001)                 3.158102274380121E+05,      /* I =876 */
(PID.TID 0000.0001)                 3.176445436663792E+05,      /* I =877 */
(PID.TID 0000.0001)                 3.190720839296710E+05,      /* I =878 */
(PID.TID 0000.0001)                 3.200486187399661E+05,      /* I =879 */
(PID.TID 0000.0001)     2 @  3.205444100809708E+05,             /* I =880:881 */
(PID.TID 0000.0001)                 3.200486187399661E+05,      /* I =882 */
(PID.TID 0000.0001)                 3.190720839296710E+05,      /* I =883 */
(PID.TID 0000.0001)                 3.176445436663792E+05,      /* I =884 */
(PID.TID 0000.0001)                 3.158102274380121E+05,      /* I =885 */
(PID.TID 0000.0001)                 3.136272805687003E+05,      /* I =886 */
(PID.TID 0000.0001)                 3.111669994344792E+05,      /* I =887 */
(PID.TID 0000.0001)                 3.085127702930367E+05,      /* I =888 */
(PID.TID 0000.0001)                 3.057585931291658E+05,      /* I =889 */
(PID.TID 0000.0001)                 3.030070166343265E+05,      /* I =890 */
(PID.TID 0000.0001)                 3.003662670762532E+05,      /* I =891 */
(PID.TID 0000.0001)                 2.979463555053116E+05,      /* I =892 */
(PID.TID 0000.0001)                 2.958540382632805E+05,      /* I =893 */
(PID.TID 0000.0001)                 2.941867219746503E+05,      /* I =894 */
(PID.TID 0000.0001)                 2.930257426072231E+05,      /* I =895 */
(PID.TID 0000.0001)                 2.924298293668651E+05,      /* I =896 */
(PID.TID 0000.0001)                 3.014246674484008E+05,      /* I =897 */
(PID.TID 0000.0001)                 3.018694497480782E+05,      /* I =898 */
(PID.TID 0000.0001)                 3.027399364062562E+05,      /* I =899 */
(PID.TID 0000.0001)                 3.039990657490951E+05,      /* I =900 */
(PID.TID 0000.0001)                 3.055938607351786E+05,      /* I =901 */
(PID.TID 0000.0001)                 3.074582577767738E+05,      /* I =902 */
(PID.TID 0000.0001)                 3.095164322685570E+05,      /* I =903 */
(PID.TID 0000.0001)                 3.116863538419811E+05,      /* I =904 */
(PID.TID 0000.0001)                 3.138833384868975E+05,      /* I =905 */
(PID.TID 0000.0001)                 3.160234197751047E+05,      /* I =906 */
(PID.TID 0000.0001)                 3.180264208293543E+05,      /* I =907 */
(PID.TID 0000.0001)                 3.198186602283748E+05,      /* I =908 */
(PID.TID 0000.0001)                 3.213352627063766E+05,      /* I =909 */
(PID.TID 0000.0001)                 3.225220686282585E+05,      /* I =910 */
(PID.TID 0000.0001)                 3.233371474853745E+05,      /* I =911 */
(PID.TID 0000.0001)     2 @  3.237519587277332E+05,             /* I =912:913 */
(PID.TID 0000.0001)                 3.233371474853745E+05,      /* I =914 */
(PID.TID 0000.0001)                 3.225220686282585E+05,      /* I =915 */
(PID.TID 0000.0001)                 3.213352627063766E+05,      /* I =916 */
(PID.TID 0000.0001)                 3.198186602283748E+05,      /* I =917 */
(PID.TID 0000.0001)                 3.180264208293543E+05,      /* I =918 */
(PID.TID 0000.0001)                 3.160234197751047E+05,      /* I =919 */
(PID.TID 0000.0001)                 3.138833384868975E+05,      /* I =920 */
(PID.TID 0000.0001)                 3.116863538419811E+05,      /* I =921 */
(PID.TID 0000.0001)                 3.095164322685570E+05,      /* I =922 */
(PID.TID 0000.0001)                 3.074582577767738E+05,      /* I =923 */
(PID.TID 0000.0001)                 3.055938607351786E+05,      /* I =924 */
(PID.TID 0000.0001)                 3.039990657490951E+05,      /* I =925 */
(PID.TID 0000.0001)                 3.027399364062562E+05,      /* I =926 */
(PID.TID 0000.0001)                 3.018694497480782E+05,      /* I =927 */
(PID.TID 0000.0001)                 3.014246674484008E+05,      /* I =928 */
(PID.TID 0000.0001)                 2.924298293668651E+05,      /* I =929 */
(PID.TID 0000.0001)                 2.930257426072231E+05,      /* I =930 */
(PID.TID 0000.0001)                 2.941867219746503E+05,      /* I =931 */
(PID.TID 0000.0001)                 2.958540382632805E+05,      /* I =932 */
(PID.TID 0000.0001)                 2.979463555053116E+05,      /* I =933 */
(PID.TID 0000.0001)                 3.003662670762532E+05,      /* I =934 */
(PID.TID 0000.0001)                 3.030070166343265E+05,      /* I =935 */
(PID.TID 0000.0001)                 3.057585931291658E+05,      /* I =936 */
(PID.TID 0000.0001)                 3.085127702930367E+05,      /* I =937 */
(PID.TID 0000.0001)                 3.111669994344792E+05,      /* I =938 */
(PID.TID 0000.0001)                 3.136272805687003E+05,      /* I =939 */
(PID.TID 0000.0001)                 3.158102274380121E+05,      /* I =940 */
(PID.TID 0000.0001)                 3.176445436663792E+05,      /* I =941 */
(PID.TID 0000.0001)                 3.190720839296710E+05,      /* I =942 */
(PID.TID 0000.0001)                 3.200486187399661E+05,      /* I =943 */
(PID.TID 0000.0001)     2 @  3.205444100809708E+05,             /* I =944:945 */
(PID.TID 0000.0001)                 3.200486187399661E+05,      /* I =946 */
(PID.TID 0000.0001)                 3.190720839296710E+05,      /* I =947 */
(PID.TID 0000.0001)                 3.176445436663792E+05,      /* I =948 */
(PID.TID 0000.0001)                 3.158102274380121E+05,      /* I =949 */
(PID.TID 0000.0001)                 3.136272805687003E+05,      /* I =950 */
(PID.TID 0000.0001)                 3.111669994344792E+05,      /* I =951 */
(PID.TID 0000.0001)                 3.085127702930367E+05,      /* I =952 */
(PID.TID 0000.0001)                 3.057585931291658E+05,      /* I =953 */
(PID.TID 0000.0001)                 3.030070166343265E+05,      /* I =954 */
(PID.TID 0000.0001)                 3.003662670762532E+05,      /* I =955 */
(PID.TID 0000.0001)                 2.979463555053116E+05,      /* I =956 */
(PID.TID 0000.0001)                 2.958540382632805E+05,      /* I =957 */
(PID.TID 0000.0001)                 2.941867219746503E+05,      /* I =958 */
(PID.TID 0000.0001)                 2.930257426072231E+05,      /* I =959 */
(PID.TID 0000.0001)                 2.924298293668651E+05,      /* I =960 */
(PID.TID 0000.0001)                 2.648750305193301E+05,      /* I =961 */
(PID.TID 0000.0001)                 2.661181018072810E+05,      /* I =962 */
(PID.TID 0000.0001)                 2.684951411609472E+05,      /* I =963 */
(PID.TID 0000.0001)                 2.718130194543262E+05,      /* I =964 */
(PID.TID 0000.0001)                 2.758327097123360E+05,      /* I =965 */
(PID.TID 0000.0001)                 2.803055238380586E+05,      /* I =966 */
(PID.TID 0000.0001)                 2.849983456747301E+05,      /* I =967 */
(PID.TID 0000.0001)                 2.897064557701324E+05,      /* I =968 */
(PID.TID 0000.0001)                 2.942570946491559E+05,      /* I =969 */
(PID.TID 0000.0001)                 2.985078462652251E+05,      /* I =970 */
(PID.TID 0000.0001)                 3.023429734268671E+05,      /* I =971 */
(PID.TID 0000.0001)                 3.056695262148454E+05,      /* I =972 */
(PID.TID 0000.0001)                 3.084140431300752E+05,      /* I =973 */
(PID.TID 0000.0001)                 3.105200753220973E+05,      /* I =974 */
(PID.TID 0000.0001)                 3.119464819293889E+05,      /* I =975 */
(PID.TID 0000.0001)     2 @  3.126663860714039E+05,             /* I =976:977 */
(PID.TID 0000.0001)                 3.119464819293889E+05,      /* I =978 */
(PID.TID 0000.0001)                 3.105200753220973E+05,      /* I =979 */
(PID.TID 0000.0001)                 3.084140431300752E+05,      /* I =980 */
(PID.TID 0000.0001)                 3.056695262148454E+05,      /* I =981 */
(PID.TID 0000.0001)                 3.023429734268671E+05,      /* I =982 */
(PID.TID 0000.0001)                 2.985078462652251E+05,      /* I =983 */
(PID.TID 0000.0001)                 2.942570946491559E+05,      /* I =984 */
(PID.TID 0000.0001)                 2.897064557701324E+05,      /* I =985 */
(PID.TID 0000.0001)                 2.849983456747301E+05,      /* I =986 */
(PID.TID 0000.0001)                 2.803055238380586E+05,      /* I =987 */
(PID.TID 0000.0001)                 2.758327097123360E+05,      /* I =988 */
(PID.TID 0000.0001)                 2.718130194543262E+05,      /* I =989 */
(PID.TID 0000.0001)                 2.684951411609472E+05,      /* I =990 */
(PID.TID 0000.0001)                 2.661181018072810E+05,      /* I =991 */
(PID.TID 0000.0001)                 2.648750305193301E+05,      /* I =992 */
(PID.TID 0000.0001)                 2.138410773065497E+05,      /* I =993 */
(PID.TID 0000.0001)                 2.178997870705349E+05,      /* I =994 */
(PID.TID 0000.0001)                 2.249916053111643E+05,      /* I =995 */
(PID.TID 0000.0001)                 2.337827806959134E+05,      /* I =996 */
(PID.TID 0000.0001)                 2.432074113090727E+05,      /* I =997 */
(PID.TID 0000.0001)                 2.525876267557343E+05,      /* I =998 */
(PID.TID 0000.0001)                 2.615348743552910E+05,      /* I =999 */
(PID.TID 0000.0001)                 2.698333765987323E+05,      /* I =*** */
(PID.TID 0000.0001)                 2.773613965982297E+05,      /* I =*** */
(PID.TID 0000.0001)                 2.840465394886363E+05,      /* I =*** */
(PID.TID 0000.0001)                 2.898421973842925E+05,      /* I =*** */
(PID.TID 0000.0001)                 2.947156814824661E+05,      /* I =*** */
(PID.TID 0000.0001)                 2.986425300747283E+05,      /* I =*** */
(PID.TID 0000.0001)                 3.016039986390681E+05,      /* I =*** */
(PID.TID 0000.0001)                 3.035861321652118E+05,      /* I =*** */
(PID.TID 0000.0001)     2 @  3.045796060304602E+05,             /* I =***:*** */
(PID.TID 0000.0001)                 3.035861321652118E+05,      /* I =*** */
(PID.TID 0000.0001)                 3.016039986390681E+05,      /* I =*** */
(PID.TID 0000.0001)                 2.986425300747283E+05,      /* I =*** */
(PID.TID 0000.0001)                 2.947156814824661E+05,      /* I =*** */
(PID.TID 0000.0001)                 2.898421973842925E+05,      /* I =*** */
(PID.TID 0000.0001)                 2.840465394886363E+05,      /* I =*** */
(PID.TID 0000.0001)                 2.773613965982297E+05,      /* I =*** */
(PID.TID 0000.0001)                 2.698333765987323E+05,      /* I =*** */
(PID.TID 0000.0001)                 2.615348743552910E+05,      /* I =*** */
(PID.TID 0000.0001)                 2.525876267557343E+05,      /* I =*** */
(PID.TID 0000.0001)                 2.432074113090727E+05,      /* I =*** */
(PID.TID 0000.0001)                 2.337827806959134E+05,      /* I =*** */
(PID.TID 0000.0001)                 2.249916053111643E+05,      /* I =*** */
(PID.TID 0000.0001)                 2.178997870705349E+05,      /* I =*** */
(PID.TID 0000.0001)                 2.138410773065497E+05,      /* I =*** */
(PID.TID 0000.0001)                 1.009837800879055E+05,      /* I =*** */
(PID.TID 0000.0001)                 1.534505834330338E+05,      /* I =*** */
(PID.TID 0000.0001)                 1.823321598773926E+05,      /* I =*** */
(PID.TID 0000.0001)                 2.038999045536999E+05,      /* I =*** */
(PID.TID 0000.0001)                 2.213884732245467E+05,      /* I =*** */
(PID.TID 0000.0001)                 2.361211699596122E+05,      /* I =*** */
(PID.TID 0000.0001)                 2.487693460283865E+05,      /* I =*** */
(PID.TID 0000.0001)                 2.597126963772147E+05,      /* I =*** */
(PID.TID 0000.0001)                 2.691790288994575E+05,      /* I =*** */
(PID.TID 0000.0001)                 2.773091043277394E+05,      /* I =*** */
(PID.TID 0000.0001)                 2.841906470085516E+05,      /* I =*** */
(PID.TID 0000.0001)                 2.898778860929753E+05,      /* I =*** */
(PID.TID 0000.0001)                 2.944035815526416E+05,      /* I =*** */
(PID.TID 0000.0001)                 2.977867909042096E+05,      /* I =*** */
(PID.TID 0000.0001)                 3.000380090330854E+05,      /* I =*** */
(PID.TID 0000.0001)     2 @  3.011625828699101E+05,             /* I =***:*** */
(PID.TID 0000.0001)                 3.000380090330854E+05,      /* I =*** */
(PID.TID 0000.0001)                 2.977867909042096E+05,      /* I =*** */
(PID.TID 0000.0001)                 2.944035815526416E+05,      /* I =*** */
(PID.TID 0000.0001)                 2.898778860929753E+05,      /* I =*** */
(PID.TID 0000.0001)                 2.841906470085516E+05,      /* I =*** */
(PID.TID 0000.0001)                 2.773091043277394E+05,      /* I =*** */
(PID.TID 0000.0001)                 2.691790288994575E+05,      /* I =*** */
(PID.TID 0000.0001)                 2.597126963772147E+05,      /* I =*** */
(PID.TID 0000.0001)                 2.487693460283865E+05,      /* I =*** */
(PID.TID 0000.0001)                 2.361211699596122E+05,      /* I =*** */
(PID.TID 0000.0001)                 2.213884732245467E+05,      /* I =*** */
(PID.TID 0000.0001)                 2.038999045536999E+05,      /* I =*** */
(PID.TID 0000.0001)                 1.823321598773926E+05,      /* I =*** */
(PID.TID 0000.0001)                 1.534505834330338E+05,      /* I =*** */
(PID.TID 0000.0001)                 1.009837800879055E+05,      /* I =*** */
(PID.TID 0000.0001)                 2.138410773065497E+05,      /* I =*** */
(PID.TID 0000.0001)                 2.178997870705349E+05,      /* I =*** */
(PID.TID 0000.0001)                 2.249916053111643E+05,      /* I =*** */
(PID.TID 0000.0001)                 2.337827806959134E+05,      /* I =*** */
(PID.TID 0000.0001)                 2.432074113090727E+05,      /* I =*** */
(PID.TID 0000.0001)                 2.525876267557343E+05,      /* I =*** */
(PID.TID 0000.0001)                 2.615348743552910E+05,      /* I =*** */
(PID.TID 0000.0001)                 2.698333765987323E+05,      /* I =*** */
(PID.TID 0000.0001)                 2.773613965982297E+05,      /* I =*** */
(PID.TID 0000.0001)                 2.840465394886363E+05,      /* I =*** */
(PID.TID 0000.0001)                 2.898421973842925E+05,      /* I =*** */
(PID.TID 0000.0001)                 2.947156814824661E+05,      /* I =*** */
(PID.TID 0000.0001)                 2.986425300747283E+05,      /* I =*** */
(PID.TID 0000.0001)                 3.016039986390681E+05,      /* I =*** */
(PID.TID 0000.0001)                 3.035861321652118E+05,      /* I =*** */
(PID.TID 0000.0001)     2 @  3.045796060304602E+05,             /* I =***:*** */
(PID.TID 0000.0001)                 3.035861321652118E+05,      /* I =*** */
(PID.TID 0000.0001)                 3.016039986390681E+05,      /* I =*** */
(PID.TID 0000.0001)                 2.986425300747283E+05,      /* I =*** */
(PID.TID 0000.0001)                 2.947156814824661E+05,      /* I =*** */
(PID.TID 0000.0001)                 2.898421973842925E+05,      /* I =*** */
(PID.TID 0000.0001)                 2.840465394886363E+05,      /* I =*** */
(PID.TID 0000.0001)                 2.773613965982297E+05,      /* I =*** */
(PID.TID 0000.0001)                 2.698333765987323E+05,      /* I =*** */
(PID.TID 0000.0001)                 2.615348743552910E+05,      /* I =*** */
(PID.TID 0000.0001)                 2.525876267557343E+05,      /* I =*** */
(PID.TID 0000.0001)                 2.432074113090727E+05,      /* I =*** */
(PID.TID 0000.0001)                 2.337827806959134E+05,      /* I =*** */
(PID.TID 0000.0001)                 2.249916053111643E+05,      /* I =*** */
(PID.TID 0000.0001)                 2.178997870705349E+05,      /* I =*** */
(PID.TID 0000.0001)                 2.138410773065497E+05,      /* I =*** */
(PID.TID 0000.0001)                 2.648750305193301E+05,      /* I =*** */
(PID.TID 0000.0001)                 2.661181018072810E+05,      /* I =*** */
(PID.TID 0000.0001)                 2.684951411609472E+05,      /* I =*** */
(PID.TID 0000.0001)                 2.718130194543262E+05,      /* I =*** */
(PID.TID 0000.0001)                 2.758327097123360E+05,      /* I =*** */
(PID.TID 0000.0001)                 2.803055238380586E+05,      /* I =*** */
(PID.TID 0000.0001)                 2.849983456747301E+05,      /* I =*** */
(PID.TID 0000.0001)                 2.897064557701324E+05,      /* I =*** */
(PID.TID 0000.0001)                 2.942570946491559E+05,      /* I =*** */
(PID.TID 0000.0001)                 2.985078462652251E+05,      /* I =*** */
(PID.TID 0000.0001)                 3.023429734268671E+05,      /* I =*** */
(PID.TID 0000.0001)                 3.056695262148454E+05,      /* I =*** */
(PID.TID 0000.0001)                 3.084140431300752E+05,      /* I =*** */
(PID.TID 0000.0001)                 3.105200753220973E+05,      /* I =*** */
(PID.TID 0000.0001)                 3.119464819293889E+05,      /* I =*** */
(PID.TID 0000.0001)     2 @  3.126663860714039E+05,             /* I =***:*** */
(PID.TID 0000.0001)                 3.119464819293889E+05,      /* I =*** */
(PID.TID 0000.0001)                 3.105200753220973E+05,      /* I =*** */
(PID.TID 0000.0001)                 3.084140431300752E+05,      /* I =*** */
(PID.TID 0000.0001)                 3.056695262148454E+05,      /* I =*** */
(PID.TID 0000.0001)                 3.023429734268671E+05,      /* I =*** */
(PID.TID 0000.0001)                 2.985078462652251E+05,      /* I =*** */
(PID.TID 0000.0001)                 2.942570946491559E+05,      /* I =*** */
(PID.TID 0000.0001)                 2.897064557701324E+05,      /* I =*** */
(PID.TID 0000.0001)                 2.849983456747301E+05,      /* I =*** */
(PID.TID 0000.0001)                 2.803055238380586E+05,      /* I =*** */
(PID.TID 0000.0001)                 2.758327097123360E+05,      /* I =*** */
(PID.TID 0000.0001)                 2.718130194543262E+05,      /* I =*** */
(PID.TID 0000.0001)                 2.684951411609472E+05,      /* I =*** */
(PID.TID 0000.0001)                 2.661181018072810E+05,      /* I =*** */
(PID.TID 0000.0001)                 2.648750305193301E+05,      /* I =*** */
(PID.TID 0000.0001)                 2.924298293668651E+05,      /* I =*** */
(PID.TID 0000.0001)                 2.930257426072231E+05,      /* I =*** */
(PID.TID 0000.0001)                 2.941867219746503E+05,      /* I =*** */
(PID.TID 0000.0001)                 2.958540382632805E+05,      /* I =*** */
(PID.TID 0000.0001)                 2.979463555053116E+05,      /* I =*** */
(PID.TID 0000.0001)                 3.003662670762532E+05,      /* I =*** */
(PID.TID 0000.0001)                 3.030070166343265E+05,      /* I =*** */
(PID.TID 0000.0001)                 3.057585931291658E+05,      /* I =*** */
(PID.TID 0000.0001)                 3.085127702930367E+05,      /* I =*** */
(PID.TID 0000.0001)                 3.111669994344792E+05,      /* I =*** */
(PID.TID 0000.0001)                 3.136272805687003E+05,      /* I =*** */
(PID.TID 0000.0001)                 3.158102274380121E+05,      /* I =*** */
(PID.TID 0000.0001)                 3.176445436663792E+05,      /* I =*** */
(PID.TID 0000.0001)                 3.190720839296710E+05,      /* I =*** */
(PID.TID 0000.0001)                 3.200486187399661E+05,      /* I =*** */
(PID.TID 0000.0001)     2 @  3.205444100809708E+05,             /* I =***:*** */
(PID.TID 0000.0001)                 3.200486187399661E+05,      /* I =*** */
(PID.TID 0000.0001)                 3.190720839296710E+05,      /* I =*** */
(PID.TID 0000.0001)                 3.176445436663792E+05,      /* I =*** */
(PID.TID 0000.0001)                 3.158102274380121E+05,      /* I =*** */
(PID.TID 0000.0001)                 3.136272805687003E+05,      /* I =*** */
(PID.TID 0000.0001)                 3.111669994344792E+05,      /* I =*** */
(PID.TID 0000.0001)                 3.085127702930367E+05,      /* I =*** */
(PID.TID 0000.0001)                 3.057585931291658E+05,      /* I =*** */
(PID.TID 0000.0001)                 3.030070166343265E+05,      /* I =*** */
(PID.TID 0000.0001)                 3.003662670762532E+05,      /* I =*** */
(PID.TID 0000.0001)                 2.979463555053116E+05,      /* I =*** */
(PID.TID 0000.0001)                 2.958540382632805E+05,      /* I =*** */
(PID.TID 0000.0001)                 2.941867219746503E+05,      /* I =*** */
(PID.TID 0000.0001)                 2.930257426072231E+05,      /* I =*** */
(PID.TID 0000.0001)                 2.924298293668651E+05,      /* I =*** */
(PID.TID 0000.0001)                 3.014246674484008E+05,      /* I =*** */
(PID.TID 0000.0001)                 3.018694497480782E+05,      /* I =*** */
(PID.TID 0000.0001)                 3.027399364062562E+05,      /* I =*** */
(PID.TID 0000.0001)                 3.039990657490951E+05,      /* I =*** */
(PID.TID 0000.0001)                 3.055938607351786E+05,      /* I =*** */
(PID.TID 0000.0001)                 3.074582577767738E+05,      /* I =*** */
(PID.TID 0000.0001)                 3.095164322685570E+05,      /* I =*** */
(PID.TID 0000.0001)                 3.116863538419811E+05,      /* I =*** */
(PID.TID 0000.0001)                 3.138833384868975E+05,      /* I =*** */
(PID.TID 0000.0001)                 3.160234197751047E+05,      /* I =*** */
(PID.TID 0000.0001)                 3.180264208293543E+05,      /* I =*** */
(PID.TID 0000.0001)                 3.198186602283748E+05,      /* I =*** */
(PID.TID 0000.0001)                 3.213352627063766E+05,      /* I =*** */
(PID.TID 0000.0001)                 3.225220686282585E+05,      /* I =*** */
(PID.TID 0000.0001)                 3.233371474853745E+05,      /* I =*** */
(PID.TID 0000.0001)     2 @  3.237519587277332E+05,             /* I =***:*** */
(PID.TID 0000.0001)                 3.233371474853745E+05,      /* I =*** */
(PID.TID 0000.0001)                 3.225220686282585E+05,      /* I =*** */
(PID.TID 0000.0001)                 3.213352627063766E+05,      /* I =*** */
(PID.TID 0000.0001)                 3.198186602283748E+05,      /* I =*** */
(PID.TID 0000.0001)                 3.180264208293543E+05,      /* I =*** */
(PID.TID 0000.0001)                 3.160234197751047E+05,      /* I =*** */
(PID.TID 0000.0001)                 3.138833384868975E+05,      /* I =*** */
(PID.TID 0000.0001)                 3.116863538419811E+05,      /* I =*** */
(PID.TID 0000.0001)                 3.095164322685570E+05,      /* I =*** */
(PID.TID 0000.0001)                 3.074582577767738E+05,      /* I =*** */
(PID.TID 0000.0001)                 3.055938607351786E+05,      /* I =*** */
(PID.TID 0000.0001)                 3.039990657490951E+05,      /* I =*** */
(PID.TID 0000.0001)                 3.027399364062562E+05,      /* I =*** */
(PID.TID 0000.0001)                 3.018694497480782E+05,      /* I =*** */
(PID.TID 0000.0001)                 3.014246674484008E+05,      /* I =*** */
(PID.TID 0000.0001)                 2.924298293668651E+05,      /* I =*** */
(PID.TID 0000.0001)                 2.930257426072231E+05,      /* I =*** */
(PID.TID 0000.0001)                 2.941867219746503E+05,      /* I =*** */
(PID.TID 0000.0001)                 2.958540382632805E+05,      /* I =*** */
(PID.TID 0000.0001)                 2.979463555053116E+05,      /* I =*** */
(PID.TID 0000.0001)                 3.003662670762532E+05,      /* I =*** */
(PID.TID 0000.0001)                 3.030070166343265E+05,      /* I =*** */
(PID.TID 0000.0001)                 3.057585931291658E+05,      /* I =*** */
(PID.TID 0000.0001)                 3.085127702930367E+05,      /* I =*** */
(PID.TID 0000.0001)                 3.111669994344792E+05,      /* I =*** */
(PID.TID 0000.0001)                 3.136272805687003E+05,      /* I =*** */
(PID.TID 0000.0001)                 3.158102274380121E+05,      /* I =*** */
(PID.TID 0000.0001)                 3.176445436663792E+05,      /* I =*** */
(PID.TID 0000.0001)                 3.190720839296710E+05,      /* I =*** */
(PID.TID 0000.0001)                 3.200486187399661E+05,      /* I =*** */
(PID.TID 0000.0001)     2 @  3.205444100809708E+05,             /* I =***:*** */
(PID.TID 0000.0001)                 3.200486187399661E+05,      /* I =*** */
(PID.TID 0000.0001)                 3.190720839296710E+05,      /* I =*** */
(PID.TID 0000.0001)                 3.176445436663792E+05,      /* I =*** */
(PID.TID 0000.0001)                 3.158102274380121E+05,      /* I =*** */
(PID.TID 0000.0001)                 3.136272805687003E+05,      /* I =*** */
(PID.TID 0000.0001)                 3.111669994344792E+05,      /* I =*** */
(PID.TID 0000.0001)                 3.085127702930367E+05,      /* I =*** */
(PID.TID 0000.0001)                 3.057585931291658E+05,      /* I =*** */
(PID.TID 0000.0001)                 3.030070166343265E+05,      /* I =*** */
(PID.TID 0000.0001)                 3.003662670762532E+05,      /* I =*** */
(PID.TID 0000.0001)                 2.979463555053116E+05,      /* I =*** */
(PID.TID 0000.0001)                 2.958540382632805E+05,      /* I =*** */
(PID.TID 0000.0001)                 2.941867219746503E+05,      /* I =*** */
(PID.TID 0000.0001)                 2.930257426072231E+05,      /* I =*** */
(PID.TID 0000.0001)                 2.924298293668651E+05,      /* I =*** */
(PID.TID 0000.0001)                 2.648750305193301E+05,      /* I =*** */
(PID.TID 0000.0001)                 2.661181018072810E+05,      /* I =*** */
(PID.TID 0000.0001)                 2.684951411609472E+05,      /* I =*** */
(PID.TID 0000.0001)                 2.718130194543262E+05,      /* I =*** */
(PID.TID 0000.0001)                 2.758327097123360E+05,      /* I =*** */
(PID.TID 0000.0001)                 2.803055238380586E+05,      /* I =*** */
(PID.TID 0000.0001)                 2.849983456747301E+05,      /* I =*** */
(PID.TID 0000.0001)                 2.897064557701324E+05,      /* I =*** */
(PID.TID 0000.0001)                 2.942570946491559E+05,      /* I =*** */
(PID.TID 0000.0001)                 2.985078462652251E+05,      /* I =*** */
(PID.TID 0000.0001)                 3.023429734268671E+05,      /* I =*** */
(PID.TID 0000.0001)                 3.056695262148454E+05,      /* I =*** */
(PID.TID 0000.0001)                 3.084140431300752E+05,      /* I =*** */
(PID.TID 0000.0001)                 3.105200753220973E+05,      /* I =*** */
(PID.TID 0000.0001)                 3.119464819293889E+05,      /* I =*** */
(PID.TID 0000.0001)     2 @  3.126663860714039E+05,             /* I =***:*** */
(PID.TID 0000.0001)                 3.119464819293889E+05,      /* I =*** */
(PID.TID 0000.0001)                 3.105200753220973E+05,      /* I =*** */
(PID.TID 0000.0001)                 3.084140431300752E+05,      /* I =*** */
(PID.TID 0000.0001)                 3.056695262148454E+05,      /* I =*** */
(PID.TID 0000.0001)                 3.023429734268671E+05,      /* I =*** */
(PID.TID 0000.0001)                 2.985078462652251E+05,      /* I =*** */
(PID.TID 0000.0001)                 2.942570946491559E+05,      /* I =*** */
(PID.TID 0000.0001)                 2.897064557701324E+05,      /* I =*** */
(PID.TID 0000.0001)                 2.849983456747301E+05,      /* I =*** */
(PID.TID 0000.0001)                 2.803055238380586E+05,      /* I =*** */
(PID.TID 0000.0001)                 2.758327097123360E+05,      /* I =*** */
(PID.TID 0000.0001)                 2.718130194543262E+05,      /* I =*** */
(PID.TID 0000.0001)                 2.684951411609472E+05,      /* I =*** */
(PID.TID 0000.0001)                 2.661181018072810E+05,      /* I =*** */
(PID.TID 0000.0001)                 2.648750305193301E+05,      /* I =*** */
(PID.TID 0000.0001)                 2.138410773065497E+05,      /* I =*** */
(PID.TID 0000.0001)                 2.178997870705349E+05,      /* I =*** */
(PID.TID 0000.0001)                 2.249916053111643E+05,      /* I =*** */
(PID.TID 0000.0001)                 2.337827806959134E+05,      /* I =*** */
(PID.TID 0000.0001)                 2.432074113090727E+05,      /* I =*** */
(PID.TID 0000.0001)                 2.525876267557343E+05,      /* I =*** */
(PID.TID 0000.0001)                 2.615348743552910E+05,      /* I =*** */
(PID.TID 0000.0001)                 2.698333765987323E+05,      /* I =*** */
(PID.TID 0000.0001)                 2.773613965982297E+05,      /* I =*** */
(PID.TID 0000.0001)                 2.840465394886363E+05,      /* I =*** */
(PID.TID 0000.0001)                 2.898421973842925E+05,      /* I =*** */
(PID.TID 0000.0001)                 2.947156814824661E+05,      /* I =*** */
(PID.TID 0000.0001)                 2.986425300747283E+05,      /* I =*** */
(PID.TID 0000.0001)                 3.016039986390681E+05,      /* I =*** */
(PID.TID 0000.0001)                 3.035861321652118E+05,      /* I =*** */
(PID.TID 0000.0001)     2 @  3.045796060304602E+05,             /* I =***:*** */
(PID.TID 0000.0001)                 3.035861321652118E+05,      /* I =*** */
(PID.TID 0000.0001)                 3.016039986390681E+05,      /* I =*** */
(PID.TID 0000.0001)                 2.986425300747283E+05,      /* I =*** */
(PID.TID 0000.0001)                 2.947156814824661E+05,      /* I =*** */
(PID.TID 0000.0001)                 2.898421973842925E+05,      /* I =*** */
(PID.TID 0000.0001)                 2.840465394886363E+05,      /* I =*** */
(PID.TID 0000.0001)                 2.773613965982297E+05,      /* I =*** */
(PID.TID 0000.0001)                 2.698333765987323E+05,      /* I =*** */
(PID.TID 0000.0001)                 2.615348743552910E+05,      /* I =*** */
(PID.TID 0000.0001)                 2.525876267557343E+05,      /* I =*** */
(PID.TID 0000.0001)                 2.432074113090727E+05,      /* I =*** */
(PID.TID 0000.0001)                 2.337827806959134E+05,      /* I =*** */
(PID.TID 0000.0001)                 2.249916053111643E+05,      /* I =*** */
(PID.TID 0000.0001)                 2.178997870705349E+05,      /* I =*** */
(PID.TID 0000.0001)                 2.138410773065497E+05,      /* I =*** */
(PID.TID 0000.0001)                 1.009837800879055E+05,      /* I =*** */
(PID.TID 0000.0001)                 1.534505834330338E+05,      /* I =*** */
(PID.TID 0000.0001)                 1.823321598773926E+05,      /* I =*** */
(PID.TID 0000.0001)                 2.038999045536999E+05,      /* I =*** */
(PID.TID 0000.0001)                 2.213884732245467E+05,      /* I =*** */
(PID.TID 0000.0001)                 2.361211699596122E+05,      /* I =*** */
(PID.TID 0000.0001)                 2.487693460283865E+05,      /* I =*** */
(PID.TID 0000.0001)                 2.597126963772147E+05,      /* I =*** */
(PID.TID 0000.0001)                 2.691790288994575E+05,      /* I =*** */
(PID.TID 0000.0001)                 2.773091043277394E+05,      /* I =*** */
(PID.TID 0000.0001)                 2.841906470085516E+05,      /* I =*** */
(PID.TID 0000.0001)                 2.898778860929753E+05,      /* I =*** */
(PID.TID 0000.0001)                 2.944035815526416E+05,      /* I =*** */
(PID.TID 0000.0001)                 2.977867909042096E+05,      /* I =*** */
(PID.TID 0000.0001)                 3.000380090330854E+05,      /* I =*** */
(PID.TID 0000.0001)     2 @  3.011625828699101E+05,             /* I =***:*** */
(PID.TID 0000.0001)                 3.000380090330854E+05,      /* I =*** */
(PID.TID 0000.0001)                 2.977867909042096E+05,      /* I =*** */
(PID.TID 0000.0001)                 2.944035815526416E+05,      /* I =*** */
(PID.TID 0000.0001)                 2.898778860929753E+05,      /* I =*** */
(PID.TID 0000.0001)                 2.841906470085516E+05,      /* I =*** */
(PID.TID 0000.0001)                 2.773091043277394E+05,      /* I =*** */
(PID.TID 0000.0001)                 2.691790288994575E+05,      /* I =*** */
(PID.TID 0000.0001)                 2.597126963772147E+05,      /* I =*** */
(PID.TID 0000.0001)                 2.487693460283865E+05,      /* I =*** */
(PID.TID 0000.0001)                 2.361211699596122E+05,      /* I =*** */
(PID.TID 0000.0001)                 2.213884732245467E+05,      /* I =*** */
(PID.TID 0000.0001)                 2.038999045536999E+05,      /* I =*** */
(PID.TID 0000.0001)                 1.823321598773926E+05,      /* I =*** */
(PID.TID 0000.0001)                 1.534505834330338E+05,      /* I =*** */
(PID.TID 0000.0001)                 1.009837800879055E+05,      /* I =*** */
(PID.TID 0000.0001)                 2.138410773065497E+05,      /* I =*** */
(PID.TID 0000.0001)                 2.178997870705349E+05,      /* I =*** */
(PID.TID 0000.0001)                 2.249916053111643E+05,      /* I =*** */
(PID.TID 0000.0001)                 2.337827806959134E+05,      /* I =*** */
(PID.TID 0000.0001)                 2.432074113090727E+05,      /* I =*** */
(PID.TID 0000.0001)                 2.525876267557343E+05,      /* I =*** */
(PID.TID 0000.0001)                 2.615348743552910E+05,      /* I =*** */
(PID.TID 0000.0001)                 2.698333765987323E+05,      /* I =*** */
(PID.TID 0000.0001)                 2.773613965982297E+05,      /* I =*** */
(PID.TID 0000.0001)                 2.840465394886363E+05,      /* I =*** */
(PID.TID 0000.0001)                 2.898421973842925E+05,      /* I =*** */
(PID.TID 0000.0001)                 2.947156814824661E+05,      /* I =*** */
(PID.TID 0000.0001)                 2.986425300747283E+05,      /* I =*** */
(PID.TID 0000.0001)                 3.016039986390681E+05,      /* I =*** */
(PID.TID 0000.0001)                 3.035861321652118E+05,      /* I =*** */
(PID.TID 0000.0001)     2 @  3.045796060304602E+05,             /* I =***:*** */
(PID.TID 0000.0001)                 3.035861321652118E+05,      /* I =*** */
(PID.TID 0000.0001)                 3.016039986390681E+05,      /* I =*** */
(PID.TID 0000.0001)                 2.986425300747283E+05,      /* I =*** */
(PID.TID 0000.0001)                 2.947156814824661E+05,      /* I =*** */
(PID.TID 0000.0001)                 2.898421973842925E+05,      /* I =*** */
(PID.TID 0000.0001)                 2.840465394886363E+05,      /* I =*** */
(PID.TID 0000.0001)                 2.773613965982297E+05,      /* I =*** */
(PID.TID 0000.0001)                 2.698333765987323E+05,      /* I =*** */
(PID.TID 0000.0001)                 2.615348743552910E+05,      /* I =*** */
(PID.TID 0000.0001)                 2.525876267557343E+05,      /* I =*** */
(PID.TID 0000.0001)                 2.432074113090727E+05,      /* I =*** */
(PID.TID 0000.0001)                 2.337827806959134E+05,      /* I =*** */
(PID.TID 0000.0001)                 2.249916053111643E+05,      /* I =*** */
(PID.TID 0000.0001)                 2.178997870705349E+05,      /* I =*** */
(PID.TID 0000.0001)                 2.138410773065497E+05,      /* I =*** */
(PID.TID 0000.0001)                 2.648750305193301E+05,      /* I =*** */
(PID.TID 0000.0001)                 2.661181018072810E+05,      /* I =*** */
(PID.TID 0000.0001)                 2.684951411609472E+05,      /* I =*** */
(PID.TID 0000.0001)                 2.718130194543262E+05,      /* I =*** */
(PID.TID 0000.0001)                 2.758327097123360E+05,      /* I =*** */
(PID.TID 0000.0001)                 2.803055238380586E+05,      /* I =*** */
(PID.TID 0000.0001)                 2.849983456747301E+05,      /* I =*** */
(PID.TID 0000.0001)                 2.897064557701324E+05,      /* I =*** */
(PID.TID 0000.0001)                 2.942570946491559E+05,      /* I =*** */
(PID.TID 0000.0001)                 2.985078462652251E+05,      /* I =*** */
(PID.TID 0000.0001)                 3.023429734268671E+05,      /* I =*** */
(PID.TID 0000.0001)                 3.056695262148454E+05,      /* I =*** */
(PID.TID 0000.0001)                 3.084140431300752E+05,      /* I =*** */
(PID.TID 0000.0001)                 3.105200753220973E+05,      /* I =*** */
(PID.TID 0000.0001)                 3.119464819293889E+05,      /* I =*** */
(PID.TID 0000.0001)     2 @  3.126663860714039E+05,             /* I =***:*** */
(PID.TID 0000.0001)                 3.119464819293889E+05,      /* I =*** */
(PID.TID 0000.0001)                 3.105200753220973E+05,      /* I =*** */
(PID.TID 0000.0001)                 3.084140431300752E+05,      /* I =*** */
(PID.TID 0000.0001)                 3.056695262148454E+05,      /* I =*** */
(PID.TID 0000.0001)                 3.023429734268671E+05,      /* I =*** */
(PID.TID 0000.0001)                 2.985078462652251E+05,      /* I =*** */
(PID.TID 0000.0001)                 2.942570946491559E+05,      /* I =*** */
(PID.TID 0000.0001)                 2.897064557701324E+05,      /* I =*** */
(PID.TID 0000.0001)                 2.849983456747301E+05,      /* I =*** */
(PID.TID 0000.0001)                 2.803055238380586E+05,      /* I =*** */
(PID.TID 0000.0001)                 2.758327097123360E+05,      /* I =*** */
(PID.TID 0000.0001)                 2.718130194543262E+05,      /* I =*** */
(PID.TID 0000.0001)                 2.684951411609472E+05,      /* I =*** */
(PID.TID 0000.0001)                 2.661181018072810E+05,      /* I =*** */
(PID.TID 0000.0001)                 2.648750305193301E+05,      /* I =*** */
(PID.TID 0000.0001)                 2.924298293668651E+05,      /* I =*** */
(PID.TID 0000.0001)                 2.930257426072231E+05,      /* I =*** */
(PID.TID 0000.0001)                 2.941867219746503E+05,      /* I =*** */
(PID.TID 0000.0001)                 2.958540382632805E+05,      /* I =*** */
(PID.TID 0000.0001)                 2.979463555053116E+05,      /* I =*** */
(PID.TID 0000.0001)                 3.003662670762532E+05,      /* I =*** */
(PID.TID 0000.0001)                 3.030070166343265E+05,      /* I =*** */
(PID.TID 0000.0001)                 3.057585931291658E+05,      /* I =*** */
(PID.TID 0000.0001)                 3.085127702930367E+05,      /* I =*** */
(PID.TID 0000.0001)                 3.111669994344792E+05,      /* I =*** */
(PID.TID 0000.0001)                 3.136272805687003E+05,      /* I =*** */
(PID.TID 0000.0001)                 3.158102274380121E+05,      /* I =*** */
(PID.TID 0000.0001)                 3.176445436663792E+05,      /* I =*** */
(PID.TID 0000.0001)                 3.190720839296710E+05,      /* I =*** */
(PID.TID 0000.0001)                 3.200486187399661E+05,      /* I =*** */
(PID.TID 0000.0001)     2 @  3.205444100809708E+05,             /* I =***:*** */
(PID.TID 0000.0001)                 3.200486187399661E+05,      /* I =*** */
(PID.TID 0000.0001)                 3.190720839296710E+05,      /* I =*** */
(PID.TID 0000.0001)                 3.176445436663792E+05,      /* I =*** */
(PID.TID 0000.0001)                 3.158102274380121E+05,      /* I =*** */
(PID.TID 0000.0001)                 3.136272805687003E+05,      /* I =*** */
(PID.TID 0000.0001)                 3.111669994344792E+05,      /* I =*** */
(PID.TID 0000.0001)                 3.085127702930367E+05,      /* I =*** */
(PID.TID 0000.0001)                 3.057585931291658E+05,      /* I =*** */
(PID.TID 0000.0001)                 3.030070166343265E+05,      /* I =*** */
(PID.TID 0000.0001)                 3.003662670762532E+05,      /* I =*** */
(PID.TID 0000.0001)                 2.979463555053116E+05,      /* I =*** */
(PID.TID 0000.0001)                 2.958540382632805E+05,      /* I =*** */
(PID.TID 0000.0001)                 2.941867219746503E+05,      /* I =*** */
(PID.TID 0000.0001)                 2.930257426072231E+05,      /* I =*** */
(PID.TID 0000.0001)                 2.924298293668651E+05,      /* I =*** */
(PID.TID 0000.0001)                 3.014246674484008E+05,      /* I =*** */
(PID.TID 0000.0001)                 3.018694497480782E+05,      /* I =*** */
(PID.TID 0000.0001)                 3.027399364062562E+05,      /* I =*** */
(PID.TID 0000.0001)                 3.039990657490951E+05,      /* I =*** */
(PID.TID 0000.0001)                 3.055938607351786E+05,      /* I =*** */
(PID.TID 0000.0001)                 3.074582577767738E+05,      /* I =*** */
(PID.TID 0000.0001)                 3.095164322685570E+05,      /* I =*** */
(PID.TID 0000.0001)                 3.116863538419811E+05,      /* I =*** */
(PID.TID 0000.0001)                 3.138833384868975E+05,      /* I =*** */
(PID.TID 0000.0001)                 3.160234197751047E+05,      /* I =*** */
(PID.TID 0000.0001)                 3.180264208293543E+05,      /* I =*** */
(PID.TID 0000.0001)                 3.198186602283748E+05,      /* I =*** */
(PID.TID 0000.0001)                 3.213352627063766E+05,      /* I =*** */
(PID.TID 0000.0001)                 3.225220686282585E+05,      /* I =*** */
(PID.TID 0000.0001)                 3.233371474853745E+05,      /* I =*** */
(PID.TID 0000.0001)     2 @  3.237519587277332E+05,             /* I =***:*** */
(PID.TID 0000.0001)                 3.233371474853745E+05,      /* I =*** */
(PID.TID 0000.0001)                 3.225220686282585E+05,      /* I =*** */
(PID.TID 0000.0001)                 3.213352627063766E+05,      /* I =*** */
(PID.TID 0000.0001)                 3.198186602283748E+05,      /* I =*** */
(PID.TID 0000.0001)                 3.180264208293543E+05,      /* I =*** */
(PID.TID 0000.0001)                 3.160234197751047E+05,      /* I =*** */
(PID.TID 0000.0001)                 3.138833384868975E+05,      /* I =*** */
(PID.TID 0000.0001)                 3.116863538419811E+05,      /* I =*** */
(PID.TID 0000.0001)                 3.095164322685570E+05,      /* I =*** */
(PID.TID 0000.0001)                 3.074582577767738E+05,      /* I =*** */
(PID.TID 0000.0001)                 3.055938607351786E+05,      /* I =*** */
(PID.TID 0000.0001)                 3.039990657490951E+05,      /* I =*** */
(PID.TID 0000.0001)                 3.027399364062562E+05,      /* I =*** */
(PID.TID 0000.0001)                 3.018694497480782E+05,      /* I =*** */
(PID.TID 0000.0001)                 3.014246674484008E+05,      /* I =*** */
(PID.TID 0000.0001)                 2.924298293668651E+05,      /* I =*** */
(PID.TID 0000.0001)                 2.930257426072231E+05,      /* I =*** */
(PID.TID 0000.0001)                 2.941867219746503E+05,      /* I =*** */
(PID.TID 0000.0001)                 2.958540382632805E+05,      /* I =*** */
(PID.TID 0000.0001)                 2.979463555053116E+05,      /* I =*** */
(PID.TID 0000.0001)                 3.003662670762532E+05,      /* I =*** */
(PID.TID 0000.0001)                 3.030070166343265E+05,      /* I =*** */
(PID.TID 0000.0001)                 3.057585931291658E+05,      /* I =*** */
(PID.TID 0000.0001)                 3.085127702930367E+05,      /* I =*** */
(PID.TID 0000.0001)                 3.111669994344792E+05,      /* I =*** */
(PID.TID 0000.0001)                 3.136272805687003E+05,      /* I =*** */
(PID.TID 0000.0001)                 3.158102274380121E+05,      /* I =*** */
(PID.TID 0000.0001)                 3.176445436663792E+05,      /* I =*** */
(PID.TID 0000.0001)                 3.190720839296710E+05,      /* I =*** */
(PID.TID 0000.0001)                 3.200486187399661E+05,      /* I =*** */
(PID.TID 0000.0001)     2 @  3.205444100809708E+05,             /* I =***:*** */
(PID.TID 0000.0001)                 3.200486187399661E+05,      /* I =*** */
(PID.TID 0000.0001)                 3.190720839296710E+05,      /* I =*** */
(PID.TID 0000.0001)                 3.176445436663792E+05,      /* I =*** */
(PID.TID 0000.0001)                 3.158102274380121E+05,      /* I =*** */
(PID.TID 0000.0001)                 3.136272805687003E+05,      /* I =*** */
(PID.TID 0000.0001)                 3.111669994344792E+05,      /* I =*** */
(PID.TID 0000.0001)                 3.085127702930367E+05,      /* I =*** */
(PID.TID 0000.0001)                 3.057585931291658E+05,      /* I =*** */
(PID.TID 0000.0001)                 3.030070166343265E+05,      /* I =*** */
(PID.TID 0000.0001)                 3.003662670762532E+05,      /* I =*** */
(PID.TID 0000.0001)                 2.979463555053116E+05,      /* I =*** */
(PID.TID 0000.0001)                 2.958540382632805E+05,      /* I =*** */
(PID.TID 0000.0001)                 2.941867219746503E+05,      /* I =*** */
(PID.TID 0000.0001)                 2.930257426072231E+05,      /* I =*** */
(PID.TID 0000.0001)                 2.924298293668651E+05,      /* I =*** */
(PID.TID 0000.0001)                 2.648750305193301E+05,      /* I =*** */
(PID.TID 0000.0001)                 2.661181018072810E+05,      /* I =*** */
(PID.TID 0000.0001)                 2.684951411609472E+05,      /* I =*** */
(PID.TID 0000.0001)                 2.718130194543262E+05,      /* I =*** */
(PID.TID 0000.0001)                 2.758327097123360E+05,      /* I =*** */
(PID.TID 0000.0001)                 2.803055238380586E+05,      /* I =*** */
(PID.TID 0000.0001)                 2.849983456747301E+05,      /* I =*** */
(PID.TID 0000.0001)                 2.897064557701324E+05,      /* I =*** */
(PID.TID 0000.0001)                 2.942570946491559E+05,      /* I =*** */
(PID.TID 0000.0001)                 2.985078462652251E+05,      /* I =*** */
(PID.TID 0000.0001)                 3.023429734268671E+05,      /* I =*** */
(PID.TID 0000.0001)                 3.056695262148454E+05,      /* I =*** */
(PID.TID 0000.0001)                 3.084140431300752E+05,      /* I =*** */
(PID.TID 0000.0001)                 3.105200753220973E+05,      /* I =*** */
(PID.TID 0000.0001)                 3.119464819293889E+05,      /* I =*** */
(PID.TID 0000.0001)     2 @  3.126663860714039E+05,             /* I =***:*** */
(PID.TID 0000.0001)                 3.119464819293889E+05,      /* I =*** */
(PID.TID 0000.0001)                 3.105200753220973E+05,      /* I =*** */
(PID.TID 0000.0001)                 3.084140431300752E+05,      /* I =*** */
(PID.TID 0000.0001)                 3.056695262148454E+05,      /* I =*** */
(PID.TID 0000.0001)                 3.023429734268671E+05,      /* I =*** */
(PID.TID 0000.0001)                 2.985078462652251E+05,      /* I =*** */
(PID.TID 0000.0001)                 2.942570946491559E+05,      /* I =*** */
(PID.TID 0000.0001)                 2.897064557701324E+05,      /* I =*** */
(PID.TID 0000.0001)                 2.849983456747301E+05,      /* I =*** */
(PID.TID 0000.0001)                 2.803055238380586E+05,      /* I =*** */
(PID.TID 0000.0001)                 2.758327097123360E+05,      /* I =*** */
(PID.TID 0000.0001)                 2.718130194543262E+05,      /* I =*** */
(PID.TID 0000.0001)                 2.684951411609472E+05,      /* I =*** */
(PID.TID 0000.0001)                 2.661181018072810E+05,      /* I =*** */
(PID.TID 0000.0001)                 2.648750305193301E+05,      /* I =*** */
(PID.TID 0000.0001)                 2.138410773065497E+05,      /* I =*** */
(PID.TID 0000.0001)                 2.178997870705349E+05,      /* I =*** */
(PID.TID 0000.0001)                 2.249916053111643E+05,      /* I =*** */
(PID.TID 0000.0001)                 2.337827806959134E+05,      /* I =*** */
(PID.TID 0000.0001)                 2.432074113090727E+05,      /* I =*** */
(PID.TID 0000.0001)                 2.525876267557343E+05,      /* I =*** */
(PID.TID 0000.0001)                 2.615348743552910E+05,      /* I =*** */
(PID.TID 0000.0001)                 2.698333765987323E+05,      /* I =*** */
(PID.TID 0000.0001)                 2.773613965982297E+05,      /* I =*** */
(PID.TID 0000.0001)                 2.840465394886363E+05,      /* I =*** */
(PID.TID 0000.0001)                 2.898421973842925E+05,      /* I =*** */
(PID.TID 0000.0001)                 2.947156814824661E+05,      /* I =*** */
(PID.TID 0000.0001)                 2.986425300747283E+05,      /* I =*** */
(PID.TID 0000.0001)                 3.016039986390681E+05,      /* I =*** */
(PID.TID 0000.0001)                 3.035861321652118E+05,      /* I =*** */
(PID.TID 0000.0001)     2 @  3.045796060304602E+05,             /* I =***:*** */
(PID.TID 0000.0001)                 3.035861321652118E+05,      /* I =*** */
(PID.TID 0000.0001)                 3.016039986390681E+05,      /* I =*** */
(PID.TID 0000.0001)                 2.986425300747283E+05,      /* I =*** */
(PID.TID 0000.0001)                 2.947156814824661E+05,      /* I =*** */
(PID.TID 0000.0001)                 2.898421973842925E+05,      /* I =*** */
(PID.TID 0000.0001)                 2.840465394886363E+05,      /* I =*** */
(PID.TID 0000.0001)                 2.773613965982297E+05,      /* I =*** */
(PID.TID 0000.0001)                 2.698333765987323E+05,      /* I =*** */
(PID.TID 0000.0001)                 2.615348743552910E+05,      /* I =*** */
(PID.TID 0000.0001)                 2.525876267557343E+05,      /* I =*** */
(PID.TID 0000.0001)                 2.432074113090727E+05,      /* I =*** */
(PID.TID 0000.0001)                 2.337827806959134E+05,      /* I =*** */
(PID.TID 0000.0001)                 2.249916053111643E+05,      /* I =*** */
(PID.TID 0000.0001)                 2.178997870705349E+05,      /* I =*** */
(PID.TID 0000.0001)                 2.138410773065497E+05       /* I =*** */
(PID.TID 0000.0001)     ;
(PID.TID 0000.0001) dxG =  /* dxG(1,:,1,:) ( m - cartesian, degrees - spherical ) */
(PID.TID 0000.0001)                 1.009837800879055E+05,      /* J =  1 */
(PID.TID 0000.0001)                 1.403701524205398E+05,      /* J =  2 */
(PID.TID 0000.0001)                 1.716197227386011E+05,      /* J =  3 */
(PID.TID 0000.0001)                 1.950254041626018E+05       /* J =  4 */
(PID.TID 0000.0001)     ;
(PID.TID 0000.0001) dyG =  /* dyG(:,1,:,1) ( m - cartesian, degrees - spherical ) */
(PID.TID 0000.0001)                 1.009837800879055E+05,      /* I =  1 */
(PID.TID 0000.0001)                 1.403701524205398E+05,      /* I =  2 */
(PID.TID 0000.0001)                 1.716197227386011E+05,      /* I =  3 */
(PID.TID 0000.0001)                 1.950254041626018E+05,      /* I =  4 */
(PID.TID 0000.0001)                 2.138410773065497E+05,      /* I =  5 */
(PID.TID 0000.0001)                 2.295958105911512E+05,      /* I =  6 */
(PID.TID 0000.0001)                 2.430829951739083E+05,      /* I =  7 */
(PID.TID 0000.0001)                 2.547526806712889E+05,      /* I =  8 */
(PID.TID 0000.0001)                 2.648750305193301E+05,      /* I =  9 */
(PID.TID 0000.0001)                 2.736173771018112E+05,      /* I = 10 */
(PID.TID 0000.0001)                 2.810845823202647E+05,      /* I = 11 */
(PID.TID 0000.0001)                 2.873420591008078E+05,      /* I = 12 */
(PID.TID 0000.0001)                 2.924298293668651E+05,      /* I = 13 */
(PID.TID 0000.0001)                 2.963715635865306E+05,      /* I = 14 */
(PID.TID 0000.0001)                 2.991805843171258E+05,      /* I = 15 */
(PID.TID 0000.0001)                 3.008638765647886E+05,      /* I = 16 */
(PID.TID 0000.0001)                 3.014246674484008E+05,      /* I = 17 */
(PID.TID 0000.0001)                 3.008638765647886E+05,      /* I = 18 */
(PID.TID 0000.0001)                 2.991805843171258E+05,      /* I = 19 */
(PID.TID 0000.0001)                 2.963715635865306E+05,      /* I = 20 */
(PID.TID 0000.0001)                 2.924298293668651E+05,      /* I = 21 */
(PID.TID 0000.0001)                 2.873420591008078E+05,      /* I = 22 */
(PID.TID 0000.0001)                 2.810845823202647E+05,      /* I = 23 */
(PID.TID 0000.0001)                 2.736173771018112E+05,      /* I = 24 */
(PID.TID 0000.0001)                 2.648750305193301E+05,      /* I = 25 */
(PID.TID 0000.0001)                 2.547526806712889E+05,      /* I = 26 */
(PID.TID 0000.0001)                 2.430829951739083E+05,      /* I = 27 */
(PID.TID 0000.0001)                 2.295958105911512E+05,      /* I = 28 */
(PID.TID 0000.0001)                 2.138410773065497E+05,      /* I = 29 */
(PID.TID 0000.0001)                 1.950254041626018E+05,      /* I = 30 */
(PID.TID 0000.0001)                 1.716197227386011E+05,      /* I = 31 */
(PID.TID 0000.0001)                 1.403701524205398E+05,      /* I = 32 */
(PID.TID 0000.0001)                 2.213884732245467E+05,      /* I = 33 */
(PID.TID 0000.0001)                 2.231462217109019E+05,      /* I = 34 */
(PID.TID 0000.0001)                 2.280091982511247E+05,      /* I = 35 */
(PID.TID 0000.0001)                 2.350270212514974E+05,      /* I = 36 */
(PID.TID 0000.0001)                 2.432074113090727E+05,      /* I = 37 */
(PID.TID 0000.0001)                 2.517902458977481E+05,      /* I = 38 */
(PID.TID 0000.0001)                 2.602748291748765E+05,      /* I = 39 */
(PID.TID 0000.0001)                 2.683519283713031E+05,      /* I = 40 */
(PID.TID 0000.0001)                 2.758327097123360E+05,      /* I = 41 */
(PID.TID 0000.0001)                 2.825990590161112E+05,      /* I = 42 */
(PID.TID 0000.0001)                 2.885735270068257E+05,      /* I = 43 */
(PID.TID 0000.0001)                 2.937023624170436E+05,      /* I = 44 */
(PID.TID 0000.0001)                 2.979463555053116E+05,      /* I = 45 */
(PID.TID 0000.0001)                 3.012761170034232E+05,      /* I = 46 */
(PID.TID 0000.0001)                 3.036697958551119E+05,      /* I = 47 */
(PID.TID 0000.0001)                 3.051120852373392E+05,      /* I = 48 */
(PID.TID 0000.0001)                 3.055938607351786E+05,      /* I = 49 */
(PID.TID 0000.0001)                 3.051120852373392E+05,      /* I = 50 */
(PID.TID 0000.0001)                 3.036697958551119E+05,      /* I = 51 */
(PID.TID 0000.0001)                 3.012761170034232E+05,      /* I = 52 */
(PID.TID 0000.0001)                 2.979463555053116E+05,      /* I = 53 */
(PID.TID 0000.0001)                 2.937023624170436E+05,      /* I = 54 */
(PID.TID 0000.0001)                 2.885735270068257E+05,      /* I = 55 */
(PID.TID 0000.0001)                 2.825990590161112E+05,      /* I = 56 */
(PID.TID 0000.0001)                 2.758327097123360E+05,      /* I = 57 */
(PID.TID 0000.0001)                 2.683519283713031E+05,      /* I = 58 */
(PID.TID 0000.0001)                 2.602748291748765E+05,      /* I = 59 */
(PID.TID 0000.0001)                 2.517902458977481E+05,      /* I = 60 */
(PID.TID 0000.0001)                 2.432074113090727E+05,      /* I = 61 */
(PID.TID 0000.0001)                 2.350270212514974E+05,      /* I = 62 */
(PID.TID 0000.0001)                 2.280091982511247E+05,      /* I = 63 */
(PID.TID 0000.0001)                 2.231462217109019E+05,      /* I = 64 */
(PID.TID 0000.0001)                 2.691790288994575E+05,      /* I = 65 */
(PID.TID 0000.0001)                 2.697440110688748E+05,      /* I = 66 */
(PID.TID 0000.0001)                 2.713923099681594E+05,      /* I = 67 */
(PID.TID 0000.0001)                 2.739940126543603E+05,      /* I = 68 */
(PID.TID 0000.0001)                 2.773613965982297E+05,      /* I = 69 */
(PID.TID 0000.0001)                 2.812793628380409E+05,      /* I = 70 */
(PID.TID 0000.0001)                 2.855313568553036E+05,      /* I = 71 */
(PID.TID 0000.0001)                 2.899163399166100E+05,      /* I = 72 */
(PID.TID 0000.0001)                 2.942570946491559E+05,      /* I = 73 */
(PID.TID 0000.0001)                 2.984024308137845E+05,      /* I = 74 */
(PID.TID 0000.0001)                 3.022260576657024E+05,      /* I = 75 */
(PID.TID 0000.0001)                 3.056241488760194E+05,      /* I = 76 */
(PID.TID 0000.0001)                 3.085127702930367E+05,      /* I = 77 */
(PID.TID 0000.0001)                 3.108257038551081E+05,      /* I = 78 */
(PID.TID 0000.0001)                 3.125128220876768E+05,      /* I = 79 */
(PID.TID 0000.0001)                 3.135389817733773E+05,      /* I = 80 */
(PID.TID 0000.0001)                 3.138833384868975E+05,      /* I = 81 */
(PID.TID 0000.0001)                 3.135389817733773E+05,      /* I = 82 */
(PID.TID 0000.0001)                 3.125128220876768E+05,      /* I = 83 */
(PID.TID 0000.0001)                 3.108257038551081E+05,      /* I = 84 */
(PID.TID 0000.0001)                 3.085127702930367E+05,      /* I = 85 */
(PID.TID 0000.0001)                 3.056241488760194E+05,      /* I = 86 */
(PID.TID 0000.0001)                 3.022260576657024E+05,      /* I = 87 */
(PID.TID 0000.0001)                 2.984024308137845E+05,      /* I = 88 */
(PID.TID 0000.0001)                 2.942570946491559E+05,      /* I = 89 */
(PID.TID 0000.0001)                 2.899163399166100E+05,      /* I = 90 */
(PID.TID 0000.0001)                 2.855313568553036E+05,      /* I = 91 */
(PID.TID 0000.0001)                 2.812793628380409E+05,      /* I = 92 */
(PID.TID 0000.0001)                 2.773613965982297E+05,      /* I = 93 */
(PID.TID 0000.0001)                 2.739940126543603E+05,      /* I = 94 */
(PID.TID 0000.0001)                 2.713923099681594E+05,      /* I = 95 */
(PID.TID 0000.0001)                 2.697440110688748E+05,      /* I = 96 */
(PID.TID 0000.0001)                 2.944035815526416E+05,      /* I = 97 */
(PID.TID 0000.0001)                 2.946855298416012E+05,      /* I = 98 */
(PID.TID 0000.0001)                 2.955172729319570E+05,      /* I = 99 */
(PID.TID 0000.0001)                 2.968577644807372E+05,      /* I =100 */
(PID.TID 0000.0001)                 2.986425300747283E+05,      /* I =101 */
(PID.TID 0000.0001)                 3.007887595276547E+05,      /* I =102 */
(PID.TID 0000.0001)                 3.032011142780227E+05,      /* I =103 */
(PID.TID 0000.0001)                 3.057774680926105E+05,      /* I =104 */
(PID.TID 0000.0001)                 3.084140431300752E+05,      /* I =105 */
(PID.TID 0000.0001)                 3.110096852545575E+05,      /* I =106 */
(PID.TID 0000.0001)                 3.134692484906674E+05,      /* I =107 */
(PID.TID 0000.0001)                 3.157061921391548E+05,      /* I =108 */
(PID.TID 0000.0001)                 3.176445436663792E+05,      /* I =109 */
(PID.TID 0000.0001)                 3.192203744905325E+05,      /* I =110 */
(PID.TID 0000.0001)                 3.203829033749552E+05,      /* I =111 */
(PID.TID 0000.0001)                 3.210953041945421E+05,      /* I =112 */
(PID.TID 0000.0001)                 3.213352627063766E+05,      /* I =113 */
(PID.TID 0000.0001)                 3.210953041945421E+05,      /* I =114 */
(PID.TID 0000.0001)                 3.203829033749552E+05,      /* I =115 */
(PID.TID 0000.0001)                 3.192203744905325E+05,      /* I =116 */
(PID.TID 0000.0001)                 3.176445436663792E+05,      /* I =117 */
(PID.TID 0000.0001)                 3.157061921391548E+05,      /* I =118 */
(PID.TID 0000.0001)                 3.134692484906674E+05,      /* I =119 */
(PID.TID 0000.0001)                 3.110096852545575E+05,      /* I =120 */
(PID.TID 0000.0001)                 3.084140431300752E+05,      /* I =121 */
(PID.TID 0000.0001)                 3.057774680926105E+05,      /* I =122 */
(PID.TID 0000.0001)                 3.032011142780227E+05,      /* I =123 */
(PID.TID 0000.0001)                 3.007887595276547E+05,      /* I =124 */
(PID.TID 0000.0001)                 2.986425300747283E+05,      /* I =125 */
(PID.TID 0000.0001)                 2.968577644807372E+05,      /* I =126 */
(PID.TID 0000.0001)                 2.955172729319570E+05,      /* I =127 */
(PID.TID 0000.0001)                 2.946855298416012E+05,      /* I =128 */
(PID.TID 0000.0001)                 3.011625828699101E+05,      /* I =129 */
(PID.TID 0000.0001)                 3.013880313304323E+05,      /* I =130 */
(PID.TID 0000.0001)                 3.020546438966793E+05,      /* I =131 */
(PID.TID 0000.0001)                 3.031337933484788E+05,      /* I =132 */
(PID.TID 0000.0001)                 3.045796060304602E+05,      /* I =133 */
(PID.TID 0000.0001)                 3.063315047037455E+05,      /* I =134 */
(PID.TID 0000.0001)                 3.083173884297931E+05,      /* I =135 */
(PID.TID 0000.0001)                 3.104571666747115E+05,      /* I =136 */
(PID.TID 0000.0001)                 3.126663860714039E+05,      /* I =137 */
(PID.TID 0000.0001)                 3.148597400258051E+05,      /* I =138 */
(PID.TID 0000.0001)                 3.169543146344334E+05,      /* I =139 */
(PID.TID 0000.0001)                 3.188724835261090E+05,      /* I =140 */
(PID.TID 0000.0001)                 3.205444100809708E+05,      /* I =141 */
(PID.TID 0000.0001)                 3.219101453522735E+05,      /* I =142 */
(PID.TID 0000.0001)                 3.229213257990267E+05,      /* I =143 */
(PID.TID 0000.0001)                 3.235424806617432E+05,      /* I =144 */
(PID.TID 0000.0001)                 3.237519587277332E+05,      /* I =145 */
(PID.TID 0000.0001)                 3.235424806617432E+05,      /* I =146 */
(PID.TID 0000.0001)                 3.229213257990267E+05,      /* I =147 */
(PID.TID 0000.0001)                 3.219101453522735E+05,      /* I =148 */
(PID.TID 0000.0001)                 3.205444100809708E+05,      /* I =149 */
(PID.TID 0000.0001)                 3.188724835261090E+05,      /* I =150 */
(PID.TID 0000.0001)                 3.169543146344334E+05,      /* I =151 */
(PID.TID 0000.0001)                 3.148597400258051E+05,      /* I =152 */
(PID.TID 0000.0001)                 3.126663860714039E+05,      /* I =153 */
(PID.TID 0000.0001)                 3.104571666747115E+05,      /* I =154 */
(PID.TID 0000.0001)                 3.083173884297931E+05,      /* I =155 */
(PID.TID 0000.0001)                 3.063315047037455E+05,      /* I =156 */
(PID.TID 0000.0001)                 3.045796060304602E+05,      /* I =157 */
(PID.TID 0000.0001)                 3.031337933484788E+05,      /* I =158 */
(PID.TID 0000.0001)                 3.020546438966793E+05,      /* I =159 */
(PID.TID 0000.0001)                 3.013880313304323E+05,      /* I =160 */
(PID.TID 0000.0001)                 2.898778860929753E+05,      /* I =161 */
(PID.TID 0000.0001)                 2.902014963196903E+05,      /* I =162 */
(PID.TID 0000.0001)                 2.911545759497503E+05,      /* I =163 */
(PID.TID 0000.0001)                 2.926858150999570E+05,      /* I =164 */
(PID.TID 0000.0001)                 2.947156814824661E+05,      /* I =165 */
(PID.TID 0000.0001)                 2.971438911279353E+05,      /* I =166 */
(PID.TID 0000.0001)                 2.998575078578424E+05,      /* I =167 */
(PID.TID 0000.0001)                 3.027384270746730E+05,      /* I =168 */
(PID.TID 0000.0001)                 3.056695262148454E+05,      /* I =169 */
(PID.TID 0000.0001)                 3.085392837309391E+05,      /* I =170 */
(PID.TID 0000.0001)                 3.112450203725228E+05,      /* I =171 */
(PID.TID 0000.0001)                 3.136950734167099E+05,      /* I =172 */
(PID.TID 0000.0001)                 3.158102274380121E+05,      /* I =173 */
(PID.TID 0000.0001)                 3.175246633946013E+05,      /* I =174 */
(PID.TID 0000.0001)                 3.187866049463793E+05,      /* I =175 */
(PID.TID 0000.0001)                 3.195587672164279E+05,      /* I =176 */
(PID.TID 0000.0001)                 3.198186602283748E+05,      /* I =177 */
(PID.TID 0000.0001)                 3.195587672164279E+05,      /* I =178 */
(PID.TID 0000.0001)                 3.187866049463793E+05,      /* I =179 */
(PID.TID 0000.0001)                 3.175246633946013E+05,      /* I =180 */
(PID.TID 0000.0001)                 3.158102274380121E+05,      /* I =181 */
(PID.TID 0000.0001)                 3.136950734167099E+05,      /* I =182 */
(PID.TID 0000.0001)                 3.112450203725228E+05,      /* I =183 */
(PID.TID 0000.0001)                 3.085392837309391E+05,      /* I =184 */
(PID.TID 0000.0001)                 3.056695262148454E+05,      /* I =185 */
(PID.TID 0000.0001)                 3.027384270746730E+05,      /* I =186 */
(PID.TID 0000.0001)                 2.998575078578424E+05,      /* I =187 */
(PID.TID 0000.0001)                 2.971438911279353E+05,      /* I =188 */
(PID.TID 0000.0001)                 2.947156814824661E+05,      /* I =189 */
(PID.TID 0000.0001)                 2.926858150999570E+05,      /* I =190 */
(PID.TID 0000.0001)                 2.911545759497503E+05,      /* I =191 */
(PID.TID 0000.0001)                 2.902014963196903E+05,      /* I =192 */
(PID.TID 0000.0001)                 2.597126963772147E+05,      /* I =193 */
(PID.TID 0000.0001)                 2.604251753978458E+05,      /* I =194 */
(PID.TID 0000.0001)                 2.624913419950762E+05,      /* I =195 */
(PID.TID 0000.0001)                 2.657171026045170E+05,      /* I =196 */
(PID.TID 0000.0001)                 2.698333765987323E+05,      /* I =197 */
(PID.TID 0000.0001)                 2.745483070885214E+05,      /* I =198 */
(PID.TID 0000.0001)                 2.795857322165681E+05,      /* I =199 */
(PID.TID 0000.0001)                 2.847050239641676E+05,      /* I =200 */
(PID.TID 0000.0001)                 2.897064557701324E+05,      /* I =201 */
(PID.TID 0000.0001)                 2.944285521457881E+05,      /* I =202 */
(PID.TID 0000.0001)                 2.987424211573701E+05,      /* I =203 */
(PID.TID 0000.0001)                 3.025458844490738E+05,      /* I =204 */
(PID.TID 0000.0001)                 3.057585931291658E+05,      /* I =205 */
(PID.TID 0000.0001)                 3.083184102117021E+05,      /* I =206 */
(PID.TID 0000.0001)                 3.101789360579298E+05,      /* I =207 */
(PID.TID 0000.0001)                 3.113079261689634E+05,      /* I =208 */
(PID.TID 0000.0001)                 3.116863538419811E+05,      /* I =209 */
(PID.TID 0000.0001)                 3.113079261689634E+05,      /* I =210 */
(PID.TID 0000.0001)                 3.101789360579298E+05,      /* I =211 */
(PID.TID 0000.0001)                 3.083184102117021E+05,      /* I =212 */
(PID.TID 0000.0001)                 3.057585931291658E+05,      /* I =213 */
(PID.TID 0000.0001)                 3.025458844490738E+05,      /* I =214 */
(PID.TID 0000.0001)                 2.987424211573701E+05,      /* I =215 */
(PID.TID 0000.0001)                 2.944285521457881E+05,      /* I =216 */
(PID.TID 0000.0001)                 2.897064557701324E+05,      /* I =217 */
(PID.TID 0000.0001)                 2.847050239641676E+05,      /* I =218 */
(PID.TID 0000.0001)                 2.795857322165681E+05,      /* I =219 */
(PID.TID 0000.0001)                 2.745483070885214E+05,      /* I =220 */
(PID.TID 0000.0001)                 2.698333765987323E+05,      /* I =221 */
(PID.TID 0000.0001)                 2.657171026045170E+05,      /* I =222 */
(PID.TID 0000.0001)                 2.624913419950762E+05,      /* I =223 */
(PID.TID 0000.0001)                 2.604251753978458E+05,      /* I =224 */
(PID.TID 0000.0001)                 2.038999045536999E+05,      /* I =225 */
(PID.TID 0000.0001)                 2.065831270737828E+05,      /* I =226 */
(PID.TID 0000.0001)                 2.136805470037770E+05,      /* I =227 */
(PID.TID 0000.0001)                 2.232765156085036E+05,      /* I =228 */
(PID.TID 0000.0001)                 2.337827806959134E+05,      /* I =229 */
(PID.TID 0000.0001)                 2.442595803598652E+05,      /* I =230 */
(PID.TID 0000.0001)                 2.542258701469758E+05,      /* I =231 */
(PID.TID 0000.0001)                 2.634480837010961E+05,      /* I =232 */
(PID.TID 0000.0001)                 2.718130194543262E+05,      /* I =233 */
(PID.TID 0000.0001)                 2.792633203662760E+05,      /* I =234 */
(PID.TID 0000.0001)                 2.857667801901064E+05,      /* I =235 */
(PID.TID 0000.0001)                 2.913023320552112E+05,      /* I =236 */
(PID.TID 0000.0001)                 2.958540382632805E+05,      /* I =237 */
(PID.TID 0000.0001)                 2.994088616915566E+05,      /* I =238 */
(PID.TID 0000.0001)                 3.019561639980273E+05,      /* I =239 */
(PID.TID 0000.0001)                 3.034879107376657E+05,      /* I =240 */
(PID.TID 0000.0001)                 3.039990657490951E+05,      /* I =241 */
(PID.TID 0000.0001)                 3.034879107376657E+05,      /* I =242 */
(PID.TID 0000.0001)                 3.019561639980273E+05,      /* I =243 */
(PID.TID 0000.0001)                 2.994088616915566E+05,      /* I =244 */
(PID.TID 0000.0001)                 2.958540382632805E+05,      /* I =245 */
(PID.TID 0000.0001)                 2.913023320552112E+05,      /* I =246 */
(PID.TID 0000.0001)                 2.857667801901064E+05,      /* I =247 */
(PID.TID 0000.0001)                 2.792633203662760E+05,      /* I =248 */
(PID.TID 0000.0001)                 2.718130194543262E+05,      /* I =249 */
(PID.TID 0000.0001)                 2.634480837010961E+05,      /* I =250 */
(PID.TID 0000.0001)                 2.542258701469758E+05,      /* I =251 */
(PID.TID 0000.0001)                 2.442595803598652E+05,      /* I =252 */
(PID.TID 0000.0001)                 2.337827806959134E+05,      /* I =253 */
(PID.TID 0000.0001)                 2.232765156085036E+05,      /* I =254 */
(PID.TID 0000.0001)                 2.136805470037770E+05,      /* I =255 */
(PID.TID 0000.0001)                 2.065831270737828E+05,      /* I =256 */
(PID.TID 0000.0001)                 1.009837800879055E+05,      /* I =257 */
(PID.TID 0000.0001)                 1.403701524205398E+05,      /* I =258 */
(PID.TID 0000.0001)                 1.716197227386011E+05,      /* I =259 */
(PID.TID 0000.0001)                 1.950254041626018E+05,      /* I =260 */
(PID.TID 0000.0001)                 2.138410773065497E+05,      /* I =261 */
(PID.TID 0000.0001)                 2.295958105911512E+05,      /* I =262 */
(PID.TID 0000.0001)                 2.430829951739083E+05,      /* I =263 */
(PID.TID 0000.0001)                 2.547526806712889E+05,      /* I =264 */
(PID.TID 0000.0001)                 2.648750305193301E+05,      /* I =265 */
(PID.TID 0000.0001)                 2.736173771018112E+05,      /* I =266 */
(PID.TID 0000.0001)                 2.810845823202647E+05,      /* I =267 */
(PID.TID 0000.0001)                 2.873420591008078E+05,      /* I =268 */
(PID.TID 0000.0001)                 2.924298293668651E+05,      /* I =269 */
(PID.TID 0000.0001)                 2.963715635865306E+05,      /* I =270 */
(PID.TID 0000.0001)                 2.991805843171258E+05,      /* I =271 */
(PID.TID 0000.0001)                 3.008638765647886E+05,      /* I =272 */
(PID.TID 0000.0001)                 3.014246674484008E+05,      /* I =273 */
(PID.TID 0000.0001)                 3.008638765647886E+05,      /* I =274 */
(PID.TID 0000.0001)                 2.991805843171258E+05,      /* I =275 */
(PID.TID 0000.0001)                 2.963715635865306E+05,      /* I =276 */
(PID.TID 0000.0001)                 2.924298293668651E+05,      /* I =277 */
(PID.TID 0000.0001)                 2.873420591008078E+05,      /* I =278 */
(PID.TID 0000.0001)                 2.810845823202647E+05,      /* I =279 */
(PID.TID 0000.0001)                 2.736173771018112E+05,      /* I =280 */
(PID.TID 0000.0001)                 2.648750305193301E+05,      /* I =281 */
(PID.TID 0000.0001)                 2.547526806712889E+05,      /* I =282 */
(PID.TID 0000.0001)                 2.430829951739083E+05,      /* I =283 */
(PID.TID 0000.0001)                 2.295958105911512E+05,      /* I =284 */
(PID.TID 0000.0001)                 2.138410773065497E+05,      /* I =285 */
(PID.TID 0000.0001)                 1.950254041626018E+05,      /* I =286 */
(PID.TID 0000.0001)                 1.716197227386011E+05,      /* I =287 */
(PID.TID 0000.0001)                 1.403701524205398E+05,      /* I =288 */
(PID.TID 0000.0001)                 2.213884732245467E+05,      /* I =289 */
(PID.TID 0000.0001)                 2.231462217109019E+05,      /* I =290 */
(PID.TID 0000.0001)                 2.280091982511247E+05,      /* I =291 */
(PID.TID 0000.0001)                 2.350270212514974E+05,      /* I =292 */
(PID.TID 0000.0001)                 2.432074113090727E+05,      /* I =293 */
(PID.TID 0000.0001)                 2.517902458977481E+05,      /* I =294 */
(PID.TID 0000.0001)                 2.602748291748765E+05,      /* I =295 */
(PID.TID 0000.0001)                 2.683519283713031E+05,      /* I =296 */
(PID.TID 0000.0001)                 2.758327097123360E+05,      /* I =297 */
(PID.TID 0000.0001)                 2.825990590161112E+05,      /* I =298 */
(PID.TID 0000.0001)                 2.885735270068257E+05,      /* I =299 */
(PID.TID 0000.0001)                 2.937023624170436E+05,      /* I =300 */
(PID.TID 0000.0001)                 2.979463555053116E+05,      /* I =301 */
(PID.TID 0000.0001)                 3.012761170034232E+05,      /* I =302 */
(PID.TID 0000.0001)                 3.036697958551119E+05,      /* I =303 */
(PID.TID 0000.0001)                 3.051120852373392E+05,      /* I =304 */
(PID.TID 0000.0001)                 3.055938607351786E+05,      /* I =305 */
(PID.TID 0000.0001)                 3.051120852373392E+05,      /* I =306 */
(PID.TID 0000.0001)                 3.036697958551119E+05,      /* I =307 */
(PID.TID 0000.0001)                 3.012761170034232E+05,      /* I =308 */
(PID.TID 0000.0001)                 2.979463555053116E+05,      /* I =309 */
(PID.TID 0000.0001)                 2.937023624170436E+05,      /* I =310 */
(PID.TID 0000.0001)                 2.885735270068257E+05,      /* I =311 */
(PID.TID 0000.0001)                 2.825990590161112E+05,      /* I =312 */
(PID.TID 0000.0001)                 2.758327097123360E+05,      /* I =313 */
(PID.TID 0000.0001)                 2.683519283713031E+05,      /* I =314 */
(PID.TID 0000.0001)                 2.602748291748765E+05,      /* I =315 */
(PID.TID 0000.0001)                 2.517902458977481E+05,      /* I =316 */
(PID.TID 0000.0001)                 2.432074113090727E+05,      /* I =317 */
(PID.TID 0000.0001)                 2.350270212514974E+05,      /* I =318 */
(PID.TID 0000.0001)                 2.280091982511247E+05,      /* I =319 */
(PID.TID 0000.0001)                 2.231462217109019E+05,      /* I =320 */
(PID.TID 0000.0001)                 2.691790288994575E+05,      /* I =321 */
(PID.TID 0000.0001)                 2.697440110688748E+05,      /* I =322 */
(PID.TID 0000.0001)                 2.713923099681594E+05,      /* I =323 */
(PID.TID 0000.0001)                 2.739940126543603E+05,      /* I =324 */
(PID.TID 0000.0001)                 2.773613965982297E+05,      /* I =325 */
(PID.TID 0000.0001)                 2.812793628380409E+05,      /* I =326 */
(PID.TID 0000.0001)                 2.855313568553036E+05,      /* I =327 */
(PID.TID 0000.0001)                 2.899163399166100E+05,      /* I =328 */
(PID.TID 0000.0001)                 2.942570946491559E+05,      /* I =329 */
(PID.TID 0000.0001)                 2.984024308137845E+05,      /* I =330 */
(PID.TID 0000.0001)                 3.022260576657024E+05,      /* I =331 */
(PID.TID 0000.0001)                 3.056241488760194E+05,      /* I =332 */
(PID.TID 0000.0001)                 3.085127702930367E+05,      /* I =333 */
(PID.TID 0000.0001)                 3.108257038551081E+05,      /* I =334 */
(PID.TID 0000.0001)                 3.125128220876768E+05,      /* I =335 */
(PID.TID 0000.0001)                 3.135389817733773E+05,      /* I =336 */
(PID.TID 0000.0001)                 3.138833384868975E+05,      /* I =337 */
(PID.TID 0000.0001)                 3.135389817733773E+05,      /* I =338 */
(PID.TID 0000.0001)                 3.125128220876768E+05,      /* I =339 */
(PID.TID 0000.0001)                 3.108257038551081E+05,      /* I =340 */
(PID.TID 0000.0001)                 3.085127702930367E+05,      /* I =341 */
(PID.TID 0000.0001)                 3.056241488760194E+05,      /* I =342 */
(PID.TID 0000.0001)                 3.022260576657024E+05,      /* I =343 */
(PID.TID 0000.0001)                 2.984024308137845E+05,      /* I =344 */
(PID.TID 0000.0001)                 2.942570946491559E+05,      /* I =345 */
(PID.TID 0000.0001)                 2.899163399166100E+05,      /* I =346 */
(PID.TID 0000.0001)                 2.855313568553036E+05,      /* I =347 */
(PID.TID 0000.0001)                 2.812793628380409E+05,      /* I =348 */
(PID.TID 0000.0001)                 2.773613965982297E+05,      /* I =349 */
(PID.TID 0000.0001)                 2.739940126543603E+05,      /* I =350 */
(PID.TID 0000.0001)                 2.713923099681594E+05,      /* I =351 */
(PID.TID 0000.0001)                 2.697440110688748E+05,      /* I =352 */
(PID.TID 0000.0001)                 2.944035815526416E+05,      /* I =353 */
(PID.TID 0000.0001)                 2.946855298416012E+05,      /* I =354 */
(PID.TID 0000.0001)                 2.955172729319570E+05,      /* I =355 */
(PID.TID 0000.0001)                 2.968577644807372E+05,      /* I =356 */
(PID.TID 0000.0001)                 2.986425300747283E+05,      /* I =357 */
(PID.TID 0000.0001)                 3.007887595276547E+05,      /* I =358 */
(PID.TID 0000.0001)                 3.032011142780227E+05,      /* I =359 */
(PID.TID 0000.0001)                 3.057774680926105E+05,      /* I =360 */
(PID.TID 0000.0001)                 3.084140431300752E+05,      /* I =361 */
(PID.TID 0000.0001)                 3.110096852545575E+05,      /* I =362 */
(PID.TID 0000.0001)                 3.134692484906674E+05,      /* I =363 */
(PID.TID 0000.0001)                 3.157061921391548E+05,      /* I =364 */
(PID.TID 0000.0001)                 3.176445436663792E+05,      /* I =365 */
(PID.TID 0000.0001)                 3.192203744905325E+05,      /* I =366 */
(PID.TID 0000.0001)                 3.203829033749552E+05,      /* I =367 */
(PID.TID 0000.0001)                 3.210953041945421E+05,      /* I =368 */
(PID.TID 0000.0001)                 3.213352627063766E+05,      /* I =369 */
(PID.TID 0000.0001)                 3.210953041945421E+05,      /* I =370 */
(PID.TID 0000.0001)                 3.203829033749552E+05,      /* I =371 */
(PID.TID 0000.0001)                 3.192203744905325E+05,      /* I =372 */
(PID.TID 0000.0001)                 3.176445436663792E+05,      /* I =373 */
(PID.TID 0000.0001)                 3.157061921391548E+05,      /* I =374 */
(PID.TID 0000.0001)                 3.134692484906674E+05,      /* I =375 */
(PID.TID 0000.0001)                 3.110096852545575E+05,      /* I =376 */
(PID.TID 0000.0001)                 3.084140431300752E+05,      /* I =377 */
(PID.TID 0000.0001)                 3.057774680926105E+05,      /* I =378 */
(PID.TID 0000.0001)                 3.032011142780227E+05,      /* I =379 */
(PID.TID 0000.0001)                 3.007887595276547E+05,      /* I =380 */
(PID.TID 0000.0001)                 2.986425300747283E+05,      /* I =381 */
(PID.TID 0000.0001)                 2.968577644807372E+05,      /* I =382 */
(PID.TID 0000.0001)                 2.955172729319570E+05,      /* I =383 */
(PID.TID 0000.0001)                 2.946855298416012E+05,      /* I =384 */
(PID.TID 0000.0001)                 3.011625828699101E+05,      /* I =385 */
(PID.TID 0000.0001)                 3.013880313304323E+05,      /* I =386 */
(PID.TID 0000.0001)                 3.020546438966793E+05,      /* I =387 */
(PID.TID 0000.0001)                 3.031337933484788E+05,      /* I =388 */
(PID.TID 0000.0001)                 3.045796060304602E+05,      /* I =389 */
(PID.TID 0000.0001)                 3.063315047037455E+05,      /* I =390 */
(PID.TID 0000.0001)                 3.083173884297931E+05,      /* I =391 */
(PID.TID 0000.0001)                 3.104571666747115E+05,      /* I =392 */
(PID.TID 0000.0001)                 3.126663860714039E+05,      /* I =393 */
(PID.TID 0000.0001)                 3.148597400258051E+05,      /* I =394 */
(PID.TID 0000.0001)                 3.169543146344334E+05,      /* I =395 */
(PID.TID 0000.0001)                 3.188724835261090E+05,      /* I =396 */
(PID.TID 0000.0001)                 3.205444100809708E+05,      /* I =397 */
(PID.TID 0000.0001)                 3.219101453522735E+05,      /* I =398 */
(PID.TID 0000.0001)                 3.229213257990267E+05,      /* I =399 */
(PID.TID 0000.0001)                 3.235424806617432E+05,      /* I =400 */
(PID.TID 0000.0001)                 3.237519587277332E+05,      /* I =401 */
(PID.TID 0000.0001)                 3.235424806617432E+05,      /* I =402 */
(PID.TID 0000.0001)                 3.229213257990267E+05,      /* I =403 */
(PID.TID 0000.0001)                 3.219101453522735E+05,      /* I =404 */
(PID.TID 0000.0001)                 3.205444100809708E+05,      /* I =405 */
(PID.TID 0000.0001)                 3.188724835261090E+05,      /* I =406 */
(PID.TID 0000.0001)                 3.169543146344334E+05,      /* I =407 */
(PID.TID 0000.0001)                 3.148597400258051E+05,      /* I =408 */
(PID.TID 0000.0001)                 3.126663860714039E+05,      /* I =409 */
(PID.TID 0000.0001)                 3.104571666747115E+05,      /* I =410 */
(PID.TID 0000.0001)                 3.083173884297931E+05,      /* I =411 */
(PID.TID 0000.0001)                 3.063315047037455E+05,      /* I =412 */
(PID.TID 0000.0001)                 3.045796060304602E+05,      /* I =413 */
(PID.TID 0000.0001)                 3.031337933484788E+05,      /* I =414 */
(PID.TID 0000.0001)                 3.020546438966793E+05,      /* I =415 */
(PID.TID 0000.0001)                 3.013880313304323E+05,      /* I =416 */
(PID.TID 0000.0001)                 2.898778860929753E+05,      /* I =417 */
(PID.TID 0000.0001)                 2.902014963196903E+05,      /* I =418 */
(PID.TID 0000.0001)                 2.911545759497503E+05,      /* I =419 */
(PID.TID 0000.0001)                 2.926858150999570E+05,      /* I =420 */
(PID.TID 0000.0001)                 2.947156814824661E+05,      /* I =421 */
(PID.TID 0000.0001)                 2.971438911279353E+05,      /* I =422 */
(PID.TID 0000.0001)                 2.998575078578424E+05,      /* I =423 */
(PID.TID 0000.0001)                 3.027384270746730E+05,      /* I =424 */
(PID.TID 0000.0001)                 3.056695262148454E+05,      /* I =425 */
(PID.TID 0000.0001)                 3.085392837309391E+05,      /* I =426 */
(PID.TID 0000.0001)                 3.112450203725228E+05,      /* I =427 */
(PID.TID 0000.0001)                 3.136950734167099E+05,      /* I =428 */
(PID.TID 0000.0001)                 3.158102274380121E+05,      /* I =429 */
(PID.TID 0000.0001)                 3.175246633946013E+05,      /* I =430 */
(PID.TID 0000.0001)                 3.187866049463793E+05,      /* I =431 */
(PID.TID 0000.0001)                 3.195587672164279E+05,      /* I =432 */
(PID.TID 0000.0001)                 3.198186602283748E+05,      /* I =433 */
(PID.TID 0000.0001)                 3.195587672164279E+05,      /* I =434 */
(PID.TID 0000.0001)                 3.187866049463793E+05,      /* I =435 */
(PID.TID 0000.0001)                 3.175246633946013E+05,      /* I =436 */
(PID.TID 0000.0001)                 3.158102274380121E+05,      /* I =437 */
(PID.TID 0000.0001)                 3.136950734167099E+05,      /* I =438 */
(PID.TID 0000.0001)                 3.112450203725228E+05,      /* I =439 */
(PID.TID 0000.0001)                 3.085392837309391E+05,      /* I =440 */
(PID.TID 0000.0001)                 3.056695262148454E+05,      /* I =441 */
(PID.TID 0000.0001)                 3.027384270746730E+05,      /* I =442 */
(PID.TID 0000.0001)                 2.998575078578424E+05,      /* I =443 */
(PID.TID 0000.0001)                 2.971438911279353E+05,      /* I =444 */
(PID.TID 0000.0001)                 2.947156814824661E+05,      /* I =445 */
(PID.TID 0000.0001)                 2.926858150999570E+05,      /* I =446 */
(PID.TID 0000.0001)                 2.911545759497503E+05,      /* I =447 */
(PID.TID 0000.0001)                 2.902014963196903E+05,      /* I =448 */
(PID.TID 0000.0001)                 2.597126963772147E+05,      /* I =449 */
(PID.TID 0000.0001)                 2.604251753978458E+05,      /* I =450 */
(PID.TID 0000.0001)                 2.624913419950762E+05,      /* I =451 */
(PID.TID 0000.0001)                 2.657171026045170E+05,      /* I =452 */
(PID.TID 0000.0001)                 2.698333765987323E+05,      /* I =453 */
(PID.TID 0000.0001)                 2.745483070885214E+05,      /* I =454 */
(PID.TID 0000.0001)                 2.795857322165681E+05,      /* I =455 */
(PID.TID 0000.0001)                 2.847050239641676E+05,      /* I =456 */
(PID.TID 0000.0001)                 2.897064557701324E+05,      /* I =457 */
(PID.TID 0000.0001)                 2.944285521457881E+05,      /* I =458 */
(PID.TID 0000.0001)                 2.987424211573701E+05,      /* I =459 */
(PID.TID 0000.0001)                 3.025458844490738E+05,      /* I =460 */
(PID.TID 0000.0001)                 3.057585931291658E+05,      /* I =461 */
(PID.TID 0000.0001)                 3.083184102117021E+05,      /* I =462 */
(PID.TID 0000.0001)                 3.101789360579298E+05,      /* I =463 */
(PID.TID 0000.0001)                 3.113079261689634E+05,      /* I =464 */
(PID.TID 0000.0001)                 3.116863538419811E+05,      /* I =465 */
(PID.TID 0000.0001)                 3.113079261689634E+05,      /* I =466 */
(PID.TID 0000.0001)                 3.101789360579298E+05,      /* I =467 */
(PID.TID 0000.0001)                 3.083184102117021E+05,      /* I =468 */
(PID.TID 0000.0001)                 3.057585931291658E+05,      /* I =469 */
(PID.TID 0000.0001)                 3.025458844490738E+05,      /* I =470 */
(PID.TID 0000.0001)                 2.987424211573701E+05,      /* I =471 */
(PID.TID 0000.0001)                 2.944285521457881E+05,      /* I =472 */
(PID.TID 0000.0001)                 2.897064557701324E+05,      /* I =473 */
(PID.TID 0000.0001)                 2.847050239641676E+05,      /* I =474 */
(PID.TID 0000.0001)                 2.795857322165681E+05,      /* I =475 */
(PID.TID 0000.0001)                 2.745483070885214E+05,      /* I =476 */
(PID.TID 0000.0001)                 2.698333765987323E+05,      /* I =477 */
(PID.TID 0000.0001)                 2.657171026045170E+05,      /* I =478 */
(PID.TID 0000.0001)                 2.624913419950762E+05,      /* I =479 */
(PID.TID 0000.0001)                 2.604251753978458E+05,      /* I =480 */
(PID.TID 0000.0001)                 2.038999045536999E+05,      /* I =481 */
(PID.TID 0000.0001)                 2.065831270737828E+05,      /* I =482 */
(PID.TID 0000.0001)                 2.136805470037770E+05,      /* I =483 */
(PID.TID 0000.0001)                 2.232765156085036E+05,      /* I =484 */
(PID.TID 0000.0001)                 2.337827806959134E+05,      /* I =485 */
(PID.TID 0000.0001)                 2.442595803598652E+05,      /* I =486 */
(PID.TID 0000.0001)                 2.542258701469758E+05,      /* I =487 */
(PID.TID 0000.0001)                 2.634480837010961E+05,      /* I =488 */
(PID.TID 0000.0001)                 2.718130194543262E+05,      /* I =489 */
(PID.TID 0000.0001)                 2.792633203662760E+05,      /* I =490 */
(PID.TID 0000.0001)                 2.857667801901064E+05,      /* I =491 */
(PID.TID 0000.0001)                 2.913023320552112E+05,      /* I =492 */
(PID.TID 0000.0001)                 2.958540382632805E+05,      /* I =493 */
(PID.TID 0000.0001)                 2.994088616915566E+05,      /* I =494 */
(PID.TID 0000.0001)                 3.019561639980273E+05,      /* I =495 */
(PID.TID 0000.0001)                 3.034879107376657E+05,      /* I =496 */
(PID.TID 0000.0001)                 3.039990657490951E+05,      /* I =497 */
(PID.TID 0000.0001)                 3.034879107376657E+05,      /* I =498 */
(PID.TID 0000.0001)                 3.019561639980273E+05,      /* I =499 */
(PID.TID 0000.0001)                 2.994088616915566E+05,      /* I =500 */
(PID.TID 0000.0001)                 2.958540382632805E+05,      /* I =501 */
(PID.TID 0000.0001)                 2.913023320552112E+05,      /* I =502 */
(PID.TID 0000.0001)                 2.857667801901064E+05,      /* I =503 */
(PID.TID 0000.0001)                 2.792633203662760E+05,      /* I =504 */
(PID.TID 0000.0001)                 2.718130194543262E+05,      /* I =505 */
(PID.TID 0000.0001)                 2.634480837010961E+05,      /* I =506 */
(PID.TID 0000.0001)                 2.542258701469758E+05,      /* I =507 */
(PID.TID 0000.0001)                 2.442595803598652E+05,      /* I =508 */
(PID.TID 0000.0001)                 2.337827806959134E+05,      /* I =509 */
(PID.TID 0000.0001)                 2.232765156085036E+05,      /* I =510 */
(PID.TID 0000.0001)                 2.136805470037770E+05,      /* I =511 */
(PID.TID 0000.0001)                 2.065831270737828E+05,      /* I =512 */
(PID.TID 0000.0001)                 1.009837800879055E+05,      /* I =513 */
(PID.TID 0000.0001)                 1.403701524205398E+05,      /* I =514 */
(PID.TID 0000.0001)                 1.716197227386011E+05,      /* I =515 */
(PID.TID 0000.0001)                 1.950254041626018E+05,      /* I =516 */
(PID.TID 0000.0001)                 2.138410773065497E+05,      /* I =517 */
(PID.TID 0000.0001)                 2.295958105911512E+05,      /* I =518 */
(PID.TID 0000.0001)                 2.430829951739083E+05,      /* I =519 */
(PID.TID 0000.0001)                 2.547526806712889E+05,      /* I =520 */
(PID.TID 0000.0001)                 2.648750305193301E+05,      /* I =521 */
(PID.TID 0000.0001)                 2.736173771018112E+05,      /* I =522 */
(PID.TID 0000.0001)                 2.810845823202647E+05,      /* I =523 */
(PID.TID 0000.0001)                 2.873420591008078E+05,      /* I =524 */
(PID.TID 0000.0001)                 2.924298293668651E+05,      /* I =525 */
(PID.TID 0000.0001)                 2.963715635865306E+05,      /* I =526 */
(PID.TID 0000.0001)                 2.991805843171258E+05,      /* I =527 */
(PID.TID 0000.0001)                 3.008638765647886E+05,      /* I =528 */
(PID.TID 0000.0001)                 3.014246674484008E+05,      /* I =529 */
(PID.TID 0000.0001)                 3.008638765647886E+05,      /* I =530 */
(PID.TID 0000.0001)                 2.991805843171258E+05,      /* I =531 */
(PID.TID 0000.0001)                 2.963715635865306E+05,      /* I =532 */
(PID.TID 0000.0001)                 2.924298293668651E+05,      /* I =533 */
(PID.TID 0000.0001)                 2.873420591008078E+05,      /* I =534 */
(PID.TID 0000.0001)                 2.810845823202647E+05,      /* I =535 */
(PID.TID 0000.0001)                 2.736173771018112E+05,      /* I =536 */
(PID.TID 0000.0001)                 2.648750305193301E+05,      /* I =537 */
(PID.TID 0000.0001)                 2.547526806712889E+05,      /* I =538 */
(PID.TID 0000.0001)                 2.430829951739083E+05,      /* I =539 */
(PID.TID 0000.0001)                 2.295958105911512E+05,      /* I =540 */
(PID.TID 0000.0001)                 2.138410773065497E+05,      /* I =541 */
(PID.TID 0000.0001)                 1.950254041626018E+05,      /* I =542 */
(PID.TID 0000.0001)                 1.716197227386011E+05,      /* I =543 */
(PID.TID 0000.0001)                 1.403701524205398E+05,      /* I =544 */
(PID.TID 0000.0001)                 2.213884732245467E+05,      /* I =545 */
(PID.TID 0000.0001)                 2.231462217109019E+05,      /* I =546 */
(PID.TID 0000.0001)                 2.280091982511247E+05,      /* I =547 */
(PID.TID 0000.0001)                 2.350270212514974E+05,      /* I =548 */
(PID.TID 0000.0001)                 2.432074113090727E+05,      /* I =549 */
(PID.TID 0000.0001)                 2.517902458977481E+05,      /* I =550 */
(PID.TID 0000.0001)                 2.602748291748765E+05,      /* I =551 */
(PID.TID 0000.0001)                 2.683519283713031E+05,      /* I =552 */
(PID.TID 0000.0001)                 2.758327097123360E+05,      /* I =553 */
(PID.TID 0000.0001)                 2.825990590161112E+05,      /* I =554 */
(PID.TID 0000.0001)                 2.885735270068257E+05,      /* I =555 */
(PID.TID 0000.0001)                 2.937023624170436E+05,      /* I =556 */
(PID.TID 0000.0001)                 2.979463555053116E+05,      /* I =557 */
(PID.TID 0000.0001)                 3.012761170034232E+05,      /* I =558 */
(PID.TID 0000.0001)                 3.036697958551119E+05,      /* I =559 */
(PID.TID 0000.0001)                 3.051120852373392E+05,      /* I =560 */
(PID.TID 0000.0001)                 3.055938607351786E+05,      /* I =561 */
(PID.TID 0000.0001)                 3.051120852373392E+05,      /* I =562 */
(PID.TID 0000.0001)                 3.036697958551119E+05,      /* I =563 */
(PID.TID 0000.0001)                 3.012761170034232E+05,      /* I =564 */
(PID.TID 0000.0001)                 2.979463555053116E+05,      /* I =565 */
(PID.TID 0000.0001)                 2.937023624170436E+05,      /* I =566 */
(PID.TID 0000.0001)                 2.885735270068257E+05,      /* I =567 */
(PID.TID 0000.0001)                 2.825990590161112E+05,      /* I =568 */
(PID.TID 0000.0001)                 2.758327097123360E+05,      /* I =569 */
(PID.TID 0000.0001)                 2.683519283713031E+05,      /* I =570 */
(PID.TID 0000.0001)                 2.602748291748765E+05,      /* I =571 */
(PID.TID 0000.0001)                 2.517902458977481E+05,      /* I =572 */
(PID.TID 0000.0001)                 2.432074113090727E+05,      /* I =573 */
(PID.TID 0000.0001)                 2.350270212514974E+05,      /* I =574 */
(PID.TID 0000.0001)                 2.280091982511247E+05,      /* I =575 */
(PID.TID 0000.0001)                 2.231462217109019E+05,      /* I =576 */
(PID.TID 0000.0001)                 2.691790288994575E+05,      /* I =577 */
(PID.TID 0000.0001)                 2.697440110688748E+05,      /* I =578 */
(PID.TID 0000.0001)                 2.713923099681594E+05,      /* I =579 */
(PID.TID 0000.0001)                 2.739940126543603E+05,      /* I =580 */
(PID.TID 0000.0001)                 2.773613965982297E+05,      /* I =581 */
(PID.TID 0000.0001)                 2.812793628380409E+05,      /* I =582 */
(PID.TID 0000.0001)                 2.855313568553036E+05,      /* I =583 */
(PID.TID 0000.0001)                 2.899163399166100E+05,      /* I =584 */
(PID.TID 0000.0001)                 2.942570946491559E+05,      /* I =585 */
(PID.TID 0000.0001)                 2.984024308137845E+05,      /* I =586 */
(PID.TID 0000.0001)                 3.022260576657024E+05,      /* I =587 */
(PID.TID 0000.0001)                 3.056241488760194E+05,      /* I =588 */
(PID.TID 0000.0001)                 3.085127702930367E+05,      /* I =589 */
(PID.TID 0000.0001)                 3.108257038551081E+05,      /* I =590 */
(PID.TID 0000.0001)                 3.125128220876768E+05,      /* I =591 */
(PID.TID 0000.0001)                 3.135389817733773E+05,      /* I =592 */
(PID.TID 0000.0001)                 3.138833384868975E+05,      /* I =593 */
(PID.TID 0000.0001)                 3.135389817733773E+05,      /* I =594 */
(PID.TID 0000.0001)                 3.125128220876768E+05,      /* I =595 */
(PID.TID 0000.0001)                 3.108257038551081E+05,      /* I =596 */
(PID.TID 0000.0001)                 3.085127702930367E+05,      /* I =597 */
(PID.TID 0000.0001)                 3.056241488760194E+05,      /* I =598 */
(PID.TID 0000.0001)                 3.022260576657024E+05,      /* I =599 */
(PID.TID 0000.0001)                 2.984024308137845E+05,      /* I =600 */
(PID.TID 0000.0001)                 2.942570946491559E+05,      /* I =601 */
(PID.TID 0000.0001)                 2.899163399166100E+05,      /* I =602 */
(PID.TID 0000.0001)                 2.855313568553036E+05,      /* I =603 */
(PID.TID 0000.0001)                 2.812793628380409E+05,      /* I =604 */
(PID.TID 0000.0001)                 2.773613965982297E+05,      /* I =605 */
(PID.TID 0000.0001)                 2.739940126543603E+05,      /* I =606 */
(PID.TID 0000.0001)                 2.713923099681594E+05,      /* I =607 */
(PID.TID 0000.0001)                 2.697440110688748E+05,      /* I =608 */
(PID.TID 0000.0001)                 2.944035815526416E+05,      /* I =609 */
(PID.TID 0000.0001)                 2.946855298416012E+05,      /* I =610 */
(PID.TID 0000.0001)                 2.955172729319570E+05,      /* I =611 */
(PID.TID 0000.0001)                 2.968577644807372E+05,      /* I =612 */
(PID.TID 0000.0001)                 2.986425300747283E+05,      /* I =613 */
(PID.TID 0000.0001)                 3.007887595276547E+05,      /* I =614 */
(PID.TID 0000.0001)                 3.032011142780227E+05,      /* I =615 */
(PID.TID 0000.0001)                 3.057774680926105E+05,      /* I =616 */
(PID.TID 0000.0001)                 3.084140431300752E+05,      /* I =617 */
(PID.TID 0000.0001)                 3.110096852545575E+05,      /* I =618 */
(PID.TID 0000.0001)                 3.134692484906674E+05,      /* I =619 */
(PID.TID 0000.0001)                 3.157061921391548E+05,      /* I =620 */
(PID.TID 0000.0001)                 3.176445436663792E+05,      /* I =621 */
(PID.TID 0000.0001)                 3.192203744905325E+05,      /* I =622 */
(PID.TID 0000.0001)                 3.203829033749552E+05,      /* I =623 */
(PID.TID 0000.0001)                 3.210953041945421E+05,      /* I =624 */
(PID.TID 0000.0001)                 3.213352627063766E+05,      /* I =625 */
(PID.TID 0000.0001)                 3.210953041945421E+05,      /* I =626 */
(PID.TID 0000.0001)                 3.203829033749552E+05,      /* I =627 */
(PID.TID 0000.0001)                 3.192203744905325E+05,      /* I =628 */
(PID.TID 0000.0001)                 3.176445436663792E+05,      /* I =629 */
(PID.TID 0000.0001)                 3.157061921391548E+05,      /* I =630 */
(PID.TID 0000.0001)                 3.134692484906674E+05,      /* I =631 */
(PID.TID 0000.0001)                 3.110096852545575E+05,      /* I =632 */
(PID.TID 0000.0001)                 3.084140431300752E+05,      /* I =633 */
(PID.TID 0000.0001)                 3.057774680926105E+05,      /* I =634 */
(PID.TID 0000.0001)                 3.032011142780227E+05,      /* I =635 */
(PID.TID 0000.0001)                 3.007887595276547E+05,      /* I =636 */
(PID.TID 0000.0001)                 2.986425300747283E+05,      /* I =637 */
(PID.TID 0000.0001)                 2.968577644807372E+05,      /* I =638 */
(PID.TID 0000.0001)                 2.955172729319570E+05,      /* I =639 */
(PID.TID 0000.0001)                 2.946855298416012E+05,      /* I =640 */
(PID.TID 0000.0001)                 3.011625828699101E+05,      /* I =641 */
(PID.TID 0000.0001)                 3.013880313304323E+05,      /* I =642 */
(PID.TID 0000.0001)                 3.020546438966793E+05,      /* I =643 */
(PID.TID 0000.0001)                 3.031337933484788E+05,      /* I =644 */
(PID.TID 0000.0001)                 3.045796060304602E+05,      /* I =645 */
(PID.TID 0000.0001)                 3.063315047037455E+05,      /* I =646 */
(PID.TID 0000.0001)                 3.083173884297931E+05,      /* I =647 */
(PID.TID 0000.0001)                 3.104571666747115E+05,      /* I =648 */
(PID.TID 0000.0001)                 3.126663860714039E+05,      /* I =649 */
(PID.TID 0000.0001)                 3.148597400258051E+05,      /* I =650 */
(PID.TID 0000.0001)                 3.169543146344334E+05,      /* I =651 */
(PID.TID 0000.0001)                 3.188724835261090E+05,      /* I =652 */
(PID.TID 0000.0001)                 3.205444100809708E+05,      /* I =653 */
(PID.TID 0000.0001)                 3.219101453522735E+05,      /* I =654 */
(PID.TID 0000.0001)                 3.229213257990267E+05,      /* I =655 */
(PID.TID 0000.0001)                 3.235424806617432E+05,      /* I =656 */
(PID.TID 0000.0001)                 3.237519587277332E+05,      /* I =657 */
(PID.TID 0000.0001)                 3.235424806617432E+05,      /* I =658 */
(PID.TID 0000.0001)                 3.229213257990267E+05,      /* I =659 */
(PID.TID 0000.0001)                 3.219101453522735E+05,      /* I =660 */
(PID.TID 0000.0001)                 3.205444100809708E+05,      /* I =661 */
(PID.TID 0000.0001)                 3.188724835261090E+05,      /* I =662 */
(PID.TID 0000.0001)                 3.169543146344334E+05,      /* I =663 */
(PID.TID 0000.0001)                 3.148597400258051E+05,      /* I =664 */
(PID.TID 0000.0001)                 3.126663860714039E+05,      /* I =665 */
(PID.TID 0000.0001)                 3.104571666747115E+05,      /* I =666 */
(PID.TID 0000.0001)                 3.083173884297931E+05,      /* I =667 */
(PID.TID 0000.0001)                 3.063315047037455E+05,      /* I =668 */
(PID.TID 0000.0001)                 3.045796060304602E+05,      /* I =669 */
(PID.TID 0000.0001)                 3.031337933484788E+05,      /* I =670 */
(PID.TID 0000.0001)                 3.020546438966793E+05,      /* I =671 */
(PID.TID 0000.0001)                 3.013880313304323E+05,      /* I =672 */
(PID.TID 0000.0001)                 2.898778860929753E+05,      /* I =673 */
(PID.TID 0000.0001)                 2.902014963196903E+05,      /* I =674 */
(PID.TID 0000.0001)                 2.911545759497503E+05,      /* I =675 */
(PID.TID 0000.0001)                 2.926858150999570E+05,      /* I =676 */
(PID.TID 0000.0001)                 2.947156814824661E+05,      /* I =677 */
(PID.TID 0000.0001)                 2.971438911279353E+05,      /* I =678 */
(PID.TID 0000.0001)                 2.998575078578424E+05,      /* I =679 */
(PID.TID 0000.0001)                 3.027384270746730E+05,      /* I =680 */
(PID.TID 0000.0001)                 3.056695262148454E+05,      /* I =681 */
(PID.TID 0000.0001)                 3.085392837309391E+05,      /* I =682 */
(PID.TID 0000.0001)                 3.112450203725228E+05,      /* I =683 */
(PID.TID 0000.0001)                 3.136950734167099E+05,      /* I =684 */
(PID.TID 0000.0001)                 3.158102274380121E+05,      /* I =685 */
(PID.TID 0000.0001)                 3.175246633946013E+05,      /* I =686 */
(PID.TID 0000.0001)                 3.187866049463793E+05,      /* I =687 */
(PID.TID 0000.0001)                 3.195587672164279E+05,      /* I =688 */
(PID.TID 0000.0001)                 3.198186602283748E+05,      /* I =689 */
(PID.TID 0000.0001)                 3.195587672164279E+05,      /* I =690 */
(PID.TID 0000.0001)                 3.187866049463793E+05,      /* I =691 */
(PID.TID 0000.0001)                 3.175246633946013E+05,      /* I =692 */
(PID.TID 0000.0001)                 3.158102274380121E+05,      /* I =693 */
(PID.TID 0000.0001)                 3.136950734167099E+05,      /* I =694 */
(PID.TID 0000.0001)                 3.112450203725228E+05,      /* I =695 */
(PID.TID 0000.0001)                 3.085392837309391E+05,      /* I =696 */
(PID.TID 0000.0001)                 3.056695262148454E+05,      /* I =697 */
(PID.TID 0000.0001)                 3.027384270746730E+05,      /* I =698 */
(PID.TID 0000.0001)                 2.998575078578424E+05,      /* I =699 */
(PID.TID 0000.0001)                 2.971438911279353E+05,      /* I =700 */
(PID.TID 0000.0001)                 2.947156814824661E+05,      /* I =701 */
(PID.TID 0000.0001)                 2.926858150999570E+05,      /* I =702 */
(PID.TID 0000.0001)                 2.911545759497503E+05,      /* I =703 */
(PID.TID 0000.0001)                 2.902014963196903E+05,      /* I =704 */
(PID.TID 0000.0001)                 2.597126963772147E+05,      /* I =705 */
(PID.TID 0000.0001)                 2.604251753978458E+05,      /* I =706 */
(PID.TID 0000.0001)                 2.624913419950762E+05,      /* I =707 */
(PID.TID 0000.0001)                 2.657171026045170E+05,      /* I =708 */
(PID.TID 0000.0001)                 2.698333765987323E+05,      /* I =709 */
(PID.TID 0000.0001)                 2.745483070885214E+05,      /* I =710 */
(PID.TID 0000.0001)                 2.795857322165681E+05,      /* I =711 */
(PID.TID 0000.0001)                 2.847050239641676E+05,      /* I =712 */
(PID.TID 0000.0001)                 2.897064557701324E+05,      /* I =713 */
(PID.TID 0000.0001)                 2.944285521457881E+05,      /* I =714 */
(PID.TID 0000.0001)                 2.987424211573701E+05,      /* I =715 */
(PID.TID 0000.0001)                 3.025458844490738E+05,      /* I =716 */
(PID.TID 0000.0001)                 3.057585931291658E+05,      /* I =717 */
(PID.TID 0000.0001)                 3.083184102117021E+05,      /* I =718 */
(PID.TID 0000.0001)                 3.101789360579298E+05,      /* I =719 */
(PID.TID 0000.0001)                 3.113079261689634E+05,      /* I =720 */
(PID.TID 0000.0001)                 3.116863538419811E+05,      /* I =721 */
(PID.TID 0000.0001)                 3.113079261689634E+05,      /* I =722 */
(PID.TID 0000.0001)                 3.101789360579298E+05,      /* I =723 */
(PID.TID 0000.0001)                 3.083184102117021E+05,      /* I =724 */
(PID.TID 0000.0001)                 3.057585931291658E+05,      /* I =725 */
(PID.TID 0000.0001)                 3.025458844490738E+05,      /* I =726 */
(PID.TID 0000.0001)                 2.987424211573701E+05,      /* I =727 */
(PID.TID 0000.0001)                 2.944285521457881E+05,      /* I =728 */
(PID.TID 0000.0001)                 2.897064557701324E+05,      /* I =729 */
(PID.TID 0000.0001)                 2.847050239641676E+05,      /* I =730 */
(PID.TID 0000.0001)                 2.795857322165681E+05,      /* I =731 */
(PID.TID 0000.0001)                 2.745483070885214E+05,      /* I =732 */
(PID.TID 0000.0001)                 2.698333765987323E+05,      /* I =733 */
(PID.TID 0000.0001)                 2.657171026045170E+05,      /* I =734 */
(PID.TID 0000.0001)                 2.624913419950762E+05,      /* I =735 */
(PID.TID 0000.0001)                 2.604251753978458E+05,      /* I =736 */
(PID.TID 0000.0001)                 2.038999045536999E+05,      /* I =737 */
(PID.TID 0000.0001)                 2.065831270737828E+05,      /* I =738 */
(PID.TID 0000.0001)                 2.136805470037770E+05,      /* I =739 */
(PID.TID 0000.0001)                 2.232765156085036E+05,      /* I =740 */
(PID.TID 0000.0001)                 2.337827806959134E+05,      /* I =741 */
(PID.TID 0000.0001)                 2.442595803598652E+05,      /* I =742 */
(PID.TID 0000.0001)                 2.542258701469758E+05,      /* I =743 */
(PID.TID 0000.0001)                 2.634480837010961E+05,      /* I =744 */
(PID.TID 0000.0001)                 2.718130194543262E+05,      /* I =745 */
(PID.TID 0000.0001)                 2.792633203662760E+05,      /* I =746 */
(PID.TID 0000.0001)                 2.857667801901064E+05,      /* I =747 */
(PID.TID 0000.0001)                 2.913023320552112E+05,      /* I =748 */
(PID.TID 0000.0001)                 2.958540382632805E+05,      /* I =749 */
(PID.TID 0000.0001)                 2.994088616915566E+05,      /* I =750 */
(PID.TID 0000.0001)                 3.019561639980273E+05,      /* I =751 */
(PID.TID 0000.0001)                 3.034879107376657E+05,      /* I =752 */
(PID.TID 0000.0001)                 3.039990657490951E+05,      /* I =753 */
(PID.TID 0000.0001)                 3.034879107376657E+05,      /* I =754 */
(PID.TID 0000.0001)                 3.019561639980273E+05,      /* I =755 */
(PID.TID 0000.0001)                 2.994088616915566E+05,      /* I =756 */
(PID.TID 0000.0001)                 2.958540382632805E+05,      /* I =757 */
(PID.TID 0000.0001)                 2.913023320552112E+05,      /* I =758 */
(PID.TID 0000.0001)                 2.857667801901064E+05,      /* I =759 */
(PID.TID 0000.0001)                 2.792633203662760E+05,      /* I =760 */
(PID.TID 0000.0001)                 2.718130194543262E+05,      /* I =761 */
(PID.TID 0000.0001)                 2.634480837010961E+05,      /* I =762 */
(PID.TID 0000.0001)                 2.542258701469758E+05,      /* I =763 */
(PID.TID 0000.0001)                 2.442595803598652E+05,      /* I =764 */
(PID.TID 0000.0001)                 2.337827806959134E+05,      /* I =765 */
(PID.TID 0000.0001)                 2.232765156085036E+05,      /* I =766 */
(PID.TID 0000.0001)                 2.136805470037770E+05,      /* I =767 */
(PID.TID 0000.0001)                 2.065831270737828E+05,      /* I =768 */
(PID.TID 0000.0001)                 1.009837800879055E+05,      /* I =769 */
(PID.TID 0000.0001)                 1.403701524205398E+05,      /* I =770 */
(PID.TID 0000.0001)                 1.716197227386011E+05,      /* I =771 */
(PID.TID 0000.0001)                 1.950254041626018E+05,      /* I =772 */
(PID.TID 0000.0001)                 2.138410773065497E+05,      /* I =773 */
(PID.TID 0000.0001)                 2.295958105911512E+05,      /* I =774 */
(PID.TID 0000.0001)                 2.430829951739083E+05,      /* I =775 */
(PID.TID 0000.0001)                 2.547526806712889E+05,      /* I =776 */
(PID.TID 0000.0001)                 2.648750305193301E+05,      /* I =777 */
(PID.TID 0000.0001)                 2.736173771018112E+05,      /* I =778 */
(PID.TID 0000.0001)                 2.810845823202647E+05,      /* I =779 */
(PID.TID 0000.0001)                 2.873420591008078E+05,      /* I =780 */
(PID.TID 0000.0001)                 2.924298293668651E+05,      /* I =781 */
(PID.TID 0000.0001)                 2.963715635865306E+05,      /* I =782 */
(PID.TID 0000.0001)                 2.991805843171258E+05,      /* I =783 */
(PID.TID 0000.0001)                 3.008638765647886E+05,      /* I =784 */
(PID.TID 0000.0001)                 3.014246674484008E+05,      /* I =785 */
(PID.TID 0000.0001)                 3.008638765647886E+05,      /* I =786 */
(PID.TID 0000.0001)                 2.991805843171258E+05,      /* I =787 */
(PID.TID 0000.0001)                 2.963715635865306E+05,      /* I =788 */
(PID.TID 0000.0001)                 2.924298293668651E+05,      /* I =789 */
(PID.TID 0000.0001)                 2.873420591008078E+05,      /* I =790 */
(PID.TID 0000.0001)                 2.810845823202647E+05,      /* I =791 */
(PID.TID 0000.0001)                 2.736173771018112E+05,      /* I =792 */
(PID.TID 0000.0001)                 2.648750305193301E+05,      /* I =793 */
(PID.TID 0000.0001)                 2.547526806712889E+05,      /* I =794 */
(PID.TID 0000.0001)                 2.430829951739083E+05,      /* I =795 */
(PID.TID 0000.0001)                 2.295958105911512E+05,      /* I =796 */
(PID.TID 0000.0001)                 2.138410773065497E+05,      /* I =797 */
(PID.TID 0000.0001)                 1.950254041626018E+05,      /* I =798 */
(PID.TID 0000.0001)                 1.716197227386011E+05,      /* I =799 */
(PID.TID 0000.0001)                 1.403701524205398E+05,      /* I =800 */
(PID.TID 0000.0001)                 2.213884732245467E+05,      /* I =801 */
(PID.TID 0000.0001)                 2.231462217109019E+05,      /* I =802 */
(PID.TID 0000.0001)                 2.280091982511247E+05,      /* I =803 */
(PID.TID 0000.0001)                 2.350270212514974E+05,      /* I =804 */
(PID.TID 0000.0001)                 2.432074113090727E+05,      /* I =805 */
(PID.TID 0000.0001)                 2.517902458977481E+05,      /* I =806 */
(PID.TID 0000.0001)                 2.602748291748765E+05,      /* I =807 */
(PID.TID 0000.0001)                 2.683519283713031E+05,      /* I =808 */
(PID.TID 0000.0001)                 2.758327097123360E+05,      /* I =809 */
(PID.TID 0000.0001)                 2.825990590161112E+05,      /* I =810 */
(PID.TID 0000.0001)                 2.885735270068257E+05,      /* I =811 */
(PID.TID 0000.0001)                 2.937023624170436E+05,      /* I =812 */
(PID.TID 0000.0001)                 2.979463555053116E+05,      /* I =813 */
(PID.TID 0000.0001)                 3.012761170034232E+05,      /* I =814 */
(PID.TID 0000.0001)                 3.036697958551119E+05,      /* I =815 */
(PID.TID 0000.0001)                 3.051120852373392E+05,      /* I =816 */
(PID.TID 0000.0001)                 3.055938607351786E+05,      /* I =817 */
(PID.TID 0000.0001)                 3.051120852373392E+05,      /* I =818 */
(PID.TID 0000.0001)                 3.036697958551119E+05,      /* I =819 */
(PID.TID 0000.0001)                 3.012761170034232E+05,      /* I =820 */
(PID.TID 0000.0001)                 2.979463555053116E+05,      /* I =821 */
(PID.TID 0000.0001)                 2.937023624170436E+05,      /* I =822 */
(PID.TID 0000.0001)                 2.885735270068257E+05,      /* I =823 */
(PID.TID 0000.0001)                 2.825990590161112E+05,      /* I =824 */
(PID.TID 0000.0001)                 2.758327097123360E+05,      /* I =825 */
(PID.TID 0000.0001)                 2.683519283713031E+05,      /* I =826 */
(PID.TID 0000.0001)                 2.602748291748765E+05,      /* I =827 */
(PID.TID 0000.0001)                 2.517902458977481E+05,      /* I =828 */
(PID.TID 0000.0001)                 2.432074113090727E+05,      /* I =829 */
(PID.TID 0000.0001)                 2.350270212514974E+05,      /* I =830 */
(PID.TID 0000.0001)                 2.280091982511247E+05,      /* I =831 */
(PID.TID 0000.0001)                 2.231462217109019E+05,      /* I =832 */
(PID.TID 0000.0001)                 2.691790288994575E+05,      /* I =833 */
(PID.TID 0000.0001)                 2.697440110688748E+05,      /* I =834 */
(PID.TID 0000.0001)                 2.713923099681594E+05,      /* I =835 */
(PID.TID 0000.0001)                 2.739940126543603E+05,      /* I =836 */
(PID.TID 0000.0001)                 2.773613965982297E+05,      /* I =837 */
(PID.TID 0000.0001)                 2.812793628380409E+05,      /* I =838 */
(PID.TID 0000.0001)                 2.855313568553036E+05,      /* I =839 */
(PID.TID 0000.0001)                 2.899163399166100E+05,      /* I =840 */
(PID.TID 0000.0001)                 2.942570946491559E+05,      /* I =841 */
(PID.TID 0000.0001)                 2.984024308137845E+05,      /* I =842 */
(PID.TID 0000.0001)                 3.022260576657024E+05,      /* I =843 */
(PID.TID 0000.0001)                 3.056241488760194E+05,      /* I =844 */
(PID.TID 0000.0001)                 3.085127702930367E+05,      /* I =845 */
(PID.TID 0000.0001)                 3.108257038551081E+05,      /* I =846 */
(PID.TID 0000.0001)                 3.125128220876768E+05,      /* I =847 */
(PID.TID 0000.0001)                 3.135389817733773E+05,      /* I =848 */
(PID.TID 0000.0001)                 3.138833384868975E+05,      /* I =849 */
(PID.TID 0000.0001)                 3.135389817733773E+05,      /* I =850 */
(PID.TID 0000.0001)                 3.125128220876768E+05,      /* I =851 */
(PID.TID 0000.0001)                 3.108257038551081E+05,      /* I =852 */
(PID.TID 0000.0001)                 3.085127702930367E+05,      /* I =853 */
(PID.TID 0000.0001)                 3.056241488760194E+05,      /* I =854 */
(PID.TID 0000.0001)                 3.022260576657024E+05,      /* I =855 */
(PID.TID 0000.0001)                 2.984024308137845E+05,      /* I =856 */
(PID.TID 0000.0001)                 2.942570946491559E+05,      /* I =857 */
(PID.TID 0000.0001)                 2.899163399166100E+05,      /* I =858 */
(PID.TID 0000.0001)                 2.855313568553036E+05,      /* I =859 */
(PID.TID 0000.0001)                 2.812793628380409E+05,      /* I =860 */
(PID.TID 0000.0001)                 2.773613965982297E+05,      /* I =861 */
(PID.TID 0000.0001)                 2.739940126543603E+05,      /* I =862 */
(PID.TID 0000.0001)                 2.713923099681594E+05,      /* I =863 */
(PID.TID 0000.0001)                 2.697440110688748E+05,      /* I =864 */
(PID.TID 0000.0001)                 2.944035815526416E+05,      /* I =865 */
(PID.TID 0000.0001)                 2.946855298416012E+05,      /* I =866 */
(PID.TID 0000.0001)                 2.955172729319570E+05,      /* I =867 */
(PID.TID 0000.0001)                 2.968577644807372E+05,      /* I =868 */
(PID.TID 0000.0001)                 2.986425300747283E+05,      /* I =869 */
(PID.TID 0000.0001)                 3.007887595276547E+05,      /* I =870 */
(PID.TID 0000.0001)                 3.032011142780227E+05,      /* I =871 */
(PID.TID 0000.0001)                 3.057774680926105E+05,      /* I =872 */
(PID.TID 0000.0001)                 3.084140431300752E+05,      /* I =873 */
(PID.TID 0000.0001)                 3.110096852545575E+05,      /* I =874 */
(PID.TID 0000.0001)                 3.134692484906674E+05,      /* I =875 */
(PID.TID 0000.0001)                 3.157061921391548E+05,      /* I =876 */
(PID.TID 0000.0001)                 3.176445436663792E+05,      /* I =877 */
(PID.TID 0000.0001)                 3.192203744905325E+05,      /* I =878 */
(PID.TID 0000.0001)                 3.203829033749552E+05,      /* I =879 */
(PID.TID 0000.0001)                 3.210953041945421E+05,      /* I =880 */
(PID.TID 0000.0001)                 3.213352627063766E+05,      /* I =881 */
(PID.TID 0000.0001)                 3.210953041945421E+05,      /* I =882 */
(PID.TID 0000.0001)                 3.203829033749552E+05,      /* I =883 */
(PID.TID 0000.0001)                 3.192203744905325E+05,      /* I =884 */
(PID.TID 0000.0001)                 3.176445436663792E+05,      /* I =885 */
(PID.TID 0000.0001)                 3.157061921391548E+05,      /* I =886 */
(PID.TID 0000.0001)                 3.134692484906674E+05,      /* I =887 */
(PID.TID 0000.0001)                 3.110096852545575E+05,      /* I =888 */
(PID.TID 0000.0001)                 3.084140431300752E+05,      /* I =889 */
(PID.TID 0000.0001)                 3.057774680926105E+05,      /* I =890 */
(PID.TID 0000.0001)                 3.032011142780227E+05,      /* I =891 */
(PID.TID 0000.0001)                 3.007887595276547E+05,      /* I =892 */
(PID.TID 0000.0001)                 2.986425300747283E+05,      /* I =893 */
(PID.TID 0000.0001)                 2.968577644807372E+05,      /* I =894 */
(PID.TID 0000.0001)                 2.955172729319570E+05,      /* I =895 */
(PID.TID 0000.0001)                 2.946855298416012E+05,      /* I =896 */
(PID.TID 0000.0001)                 3.011625828699101E+05,      /* I =897 */
(PID.TID 0000.0001)                 3.013880313304323E+05,      /* I =898 */
(PID.TID 0000.0001)                 3.020546438966793E+05,      /* I =899 */
(PID.TID 0000.0001)                 3.031337933484788E+05,      /* I =900 */
(PID.TID 0000.0001)                 3.045796060304602E+05,      /* I =901 */
(PID.TID 0000.0001)                 3.063315047037455E+05,      /* I =902 */
(PID.TID 0000.0001)                 3.083173884297931E+05,      /* I =903 */
(PID.TID 0000.0001)                 3.104571666747115E+05,      /* I =904 */
(PID.TID 0000.0001)                 3.126663860714039E+05,      /* I =905 */
(PID.TID 0000.0001)                 3.148597400258051E+05,      /* I =906 */
(PID.TID 0000.0001)                 3.169543146344334E+05,      /* I =907 */
(PID.TID 0000.0001)                 3.188724835261090E+05,      /* I =908 */
(PID.TID 0000.0001)                 3.205444100809708E+05,      /* I =909 */
(PID.TID 0000.0001)                 3.219101453522735E+05,      /* I =910 */
(PID.TID 0000.0001)                 3.229213257990267E+05,      /* I =911 */
(PID.TID 0000.0001)                 3.235424806617432E+05,      /* I =912 */
(PID.TID 0000.0001)                 3.237519587277332E+05,      /* I =913 */
(PID.TID 0000.0001)                 3.235424806617432E+05,      /* I =914 */
(PID.TID 0000.0001)                 3.229213257990267E+05,      /* I =915 */
(PID.TID 0000.0001)                 3.219101453522735E+05,      /* I =916 */
(PID.TID 0000.0001)                 3.205444100809708E+05,      /* I =917 */
(PID.TID 0000.0001)                 3.188724835261090E+05,      /* I =918 */
(PID.TID 0000.0001)                 3.169543146344334E+05,      /* I =919 */
(PID.TID 0000.0001)                 3.148597400258051E+05,      /* I =920 */
(PID.TID 0000.0001)                 3.126663860714039E+05,      /* I =921 */
(PID.TID 0000.0001)                 3.104571666747115E+05,      /* I =922 */
(PID.TID 0000.0001)                 3.083173884297931E+05,      /* I =923 */
(PID.TID 0000.0001)                 3.063315047037455E+05,      /* I =924 */
(PID.TID 0000.0001)                 3.045796060304602E+05,      /* I =925 */
(PID.TID 0000.0001)                 3.031337933484788E+05,      /* I =926 */
(PID.TID 0000.0001)                 3.020546438966793E+05,      /* I =927 */
(PID.TID 0000.0001)                 3.013880313304323E+05,      /* I =928 */
(PID.TID 0000.0001)                 2.898778860929753E+05,      /* I =929 */
(PID.TID 0000.0001)                 2.902014963196903E+05,      /* I =930 */
(PID.TID 0000.0001)                 2.911545759497503E+05,      /* I =931 */
(PID.TID 0000.0001)                 2.926858150999570E+05,      /* I =932 */
(PID.TID 0000.0001)                 2.947156814824661E+05,      /* I =933 */
(PID.TID 0000.0001)                 2.971438911279353E+05,      /* I =934 */
(PID.TID 0000.0001)                 2.998575078578424E+05,      /* I =935 */
(PID.TID 0000.0001)                 3.027384270746730E+05,      /* I =936 */
(PID.TID 0000.0001)                 3.056695262148454E+05,      /* I =937 */
(PID.TID 0000.0001)                 3.085392837309391E+05,      /* I =938 */
(PID.TID 0000.0001)                 3.112450203725228E+05,      /* I =939 */
(PID.TID 0000.0001)                 3.136950734167099E+05,      /* I =940 */
(PID.TID 0000.0001)                 3.158102274380121E+05,      /* I =941 */
(PID.TID 0000.0001)                 3.175246633946013E+05,      /* I =942 */
(PID.TID 0000.0001)                 3.187866049463793E+05,      /* I =943 */
(PID.TID 0000.0001)                 3.195587672164279E+05,      /* I =944 */
(PID.TID 0000.0001)                 3.198186602283748E+05,      /* I =945 */
(PID.TID 0000.0001)                 3.195587672164279E+05,      /* I =946 */
(PID.TID 0000.0001)                 3.187866049463793E+05,      /* I =947 */
(PID.TID 0000.0001)                 3.175246633946013E+05,      /* I =948 */
(PID.TID 0000.0001)                 3.158102274380121E+05,      /* I =949 */
(PID.TID 0000.0001)                 3.136950734167099E+05,      /* I =950 */
(PID.TID 0000.0001)                 3.112450203725228E+05,      /* I =951 */
(PID.TID 0000.0001)                 3.085392837309391E+05,      /* I =952 */
(PID.TID 0000.0001)                 3.056695262148454E+05,      /* I =953 */
(PID.TID 0000.0001)                 3.027384270746730E+05,      /* I =954 */
(PID.TID 0000.0001)                 2.998575078578424E+05,      /* I =955 */
(PID.TID 0000.0001)                 2.971438911279353E+05,      /* I =956 */
(PID.TID 0000.0001)                 2.947156814824661E+05,      /* I =957 */
(PID.TID 0000.0001)                 2.926858150999570E+05,      /* I =958 */
(PID.TID 0000.0001)                 2.911545759497503E+05,      /* I =959 */
(PID.TID 0000.0001)                 2.902014963196903E+05,      /* I =960 */
(PID.TID 0000.0001)                 2.597126963772147E+05,      /* I =961 */
(PID.TID 0000.0001)                 2.604251753978458E+05,      /* I =962 */
(PID.TID 0000.0001)                 2.624913419950762E+05,      /* I =963 */
(PID.TID 0000.0001)                 2.657171026045170E+05,      /* I =964 */
(PID.TID 0000.0001)                 2.698333765987323E+05,      /* I =965 */
(PID.TID 0000.0001)                 2.745483070885214E+05,      /* I =966 */
(PID.TID 0000.0001)                 2.795857322165681E+05,      /* I =967 */
(PID.TID 0000.0001)                 2.847050239641676E+05,      /* I =968 */
(PID.TID 0000.0001)                 2.897064557701324E+05,      /* I =969 */
(PID.TID 0000.0001)                 2.944285521457881E+05,      /* I =970 */
(PID.TID 0000.0001)                 2.987424211573701E+05,      /* I =971 */
(PID.TID 0000.0001)                 3.025458844490738E+05,      /* I =972 */
(PID.TID 0000.0001)                 3.057585931291658E+05,      /* I =973 */
(PID.TID 0000.0001)                 3.083184102117021E+05,      /* I =974 */
(PID.TID 0000.0001)                 3.101789360579298E+05,      /* I =975 */
(PID.TID 0000.0001)                 3.113079261689634E+05,      /* I =976 */
(PID.TID 0000.0001)                 3.116863538419811E+05,      /* I =977 */
(PID.TID 0000.0001)                 3.113079261689634E+05,      /* I =978 */
(PID.TID 0000.0001)                 3.101789360579298E+05,      /* I =979 */
(PID.TID 0000.0001)                 3.083184102117021E+05,      /* I =980 */
(PID.TID 0000.0001)                 3.057585931291658E+05,      /* I =981 */
(PID.TID 0000.0001)                 3.025458844490738E+05,      /* I =982 */
(PID.TID 0000.0001)                 2.987424211573701E+05,      /* I =983 */
(PID.TID 0000.0001)                 2.944285521457881E+05,      /* I =984 */
(PID.TID 0000.0001)                 2.897064557701324E+05,      /* I =985 */
(PID.TID 0000.0001)                 2.847050239641676E+05,      /* I =986 */
(PID.TID 0000.0001)                 2.795857322165681E+05,      /* I =987 */
(PID.TID 0000.0001)                 2.745483070885214E+05,      /* I =988 */
(PID.TID 0000.0001)                 2.698333765987323E+05,      /* I =989 */
(PID.TID 0000.0001)                 2.657171026045170E+05,      /* I =990 */
(PID.TID 0000.0001)                 2.624913419950762E+05,      /* I =991 */
(PID.TID 0000.0001)                 2.604251753978458E+05,      /* I =992 */
(PID.TID 0000.0001)                 2.038999045536999E+05,      /* I =993 */
(PID.TID 0000.0001)                 2.065831270737828E+05,      /* I =994 */
(PID.TID 0000.0001)                 2.136805470037770E+05,      /* I =995 */
(PID.TID 0000.0001)                 2.232765156085036E+05,      /* I =996 */
(PID.TID 0000.0001)                 2.337827806959134E+05,      /* I =997 */
(PID.TID 0000.0001)                 2.442595803598652E+05,      /* I =998 */
(PID.TID 0000.0001)                 2.542258701469758E+05,      /* I =999 */
(PID.TID 0000.0001)                 2.634480837010961E+05,      /* I =*** */
(PID.TID 0000.0001)                 2.718130194543262E+05,      /* I =*** */
(PID.TID 0000.0001)                 2.792633203662760E+05,      /* I =*** */
(PID.TID 0000.0001)                 2.857667801901064E+05,      /* I =*** */
(PID.TID 0000.0001)                 2.913023320552112E+05,      /* I =*** */
(PID.TID 0000.0001)                 2.958540382632805E+05,      /* I =*** */
(PID.TID 0000.0001)                 2.994088616915566E+05,      /* I =*** */
(PID.TID 0000.0001)                 3.019561639980273E+05,      /* I =*** */
(PID.TID 0000.0001)                 3.034879107376657E+05,      /* I =*** */
(PID.TID 0000.0001)                 3.039990657490951E+05,      /* I =*** */
(PID.TID 0000.0001)                 3.034879107376657E+05,      /* I =*** */
(PID.TID 0000.0001)                 3.019561639980273E+05,      /* I =*** */
(PID.TID 0000.0001)                 2.994088616915566E+05,      /* I =*** */
(PID.TID 0000.0001)                 2.958540382632805E+05,      /* I =*** */
(PID.TID 0000.0001)                 2.913023320552112E+05,      /* I =*** */
(PID.TID 0000.0001)                 2.857667801901064E+05,      /* I =*** */
(PID.TID 0000.0001)                 2.792633203662760E+05,      /* I =*** */
(PID.TID 0000.0001)                 2.718130194543262E+05,      /* I =*** */
(PID.TID 0000.0001)                 2.634480837010961E+05,      /* I =*** */
(PID.TID 0000.0001)                 2.542258701469758E+05,      /* I =*** */
(PID.TID 0000.0001)                 2.442595803598652E+05,      /* I =*** */
(PID.TID 0000.0001)                 2.337827806959134E+05,      /* I =*** */
(PID.TID 0000.0001)                 2.232765156085036E+05,      /* I =*** */
(PID.TID 0000.0001)                 2.136805470037770E+05,      /* I =*** */
(PID.TID 0000.0001)                 2.065831270737828E+05,      /* I =*** */
(PID.TID 0000.0001)                 1.009837800879055E+05,      /* I =*** */
(PID.TID 0000.0001)                 1.403701524205398E+05,      /* I =*** */
(PID.TID 0000.0001)                 1.716197227386011E+05,      /* I =*** */
(PID.TID 0000.0001)                 1.950254041626018E+05,      /* I =*** */
(PID.TID 0000.0001)                 2.138410773065497E+05,      /* I =*** */
(PID.TID 0000.0001)                 2.295958105911512E+05,      /* I =*** */
(PID.TID 0000.0001)                 2.430829951739083E+05,      /* I =*** */
(PID.TID 0000.0001)                 2.547526806712889E+05,      /* I =*** */
(PID.TID 0000.0001)                 2.648750305193301E+05,      /* I =*** */
(PID.TID 0000.0001)                 2.736173771018112E+05,      /* I =*** */
(PID.TID 0000.0001)                 2.810845823202647E+05,      /* I =*** */
(PID.TID 0000.0001)                 2.873420591008078E+05,      /* I =*** */
(PID.TID 0000.0001)                 2.924298293668651E+05,      /* I =*** */
(PID.TID 0000.0001)                 2.963715635865306E+05,      /* I =*** */
(PID.TID 0000.0001)                 2.991805843171258E+05,      /* I =*** */
(PID.TID 0000.0001)                 3.008638765647886E+05,      /* I =*** */
(PID.TID 0000.0001)                 3.014246674484008E+05,      /* I =*** */
(PID.TID 0000.0001)                 3.008638765647886E+05,      /* I =*** */
(PID.TID 0000.0001)                 2.991805843171258E+05,      /* I =*** */
(PID.TID 0000.0001)                 2.963715635865306E+05,      /* I =*** */
(PID.TID 0000.0001)                 2.924298293668651E+05,      /* I =*** */
(PID.TID 0000.0001)                 2.873420591008078E+05,      /* I =*** */
(PID.TID 0000.0001)                 2.810845823202647E+05,      /* I =*** */
(PID.TID 0000.0001)                 2.736173771018112E+05,      /* I =*** */
(PID.TID 0000.0001)                 2.648750305193301E+05,      /* I =*** */
(PID.TID 0000.0001)                 2.547526806712889E+05,      /* I =*** */
(PID.TID 0000.0001)                 2.430829951739083E+05,      /* I =*** */
(PID.TID 0000.0001)                 2.295958105911512E+05,      /* I =*** */
(PID.TID 0000.0001)                 2.138410773065497E+05,      /* I =*** */
(PID.TID 0000.0001)                 1.950254041626018E+05,      /* I =*** */
(PID.TID 0000.0001)                 1.716197227386011E+05,      /* I =*** */
(PID.TID 0000.0001)                 1.403701524205398E+05,      /* I =*** */
(PID.TID 0000.0001)                 2.213884732245467E+05,      /* I =*** */
(PID.TID 0000.0001)                 2.231462217109019E+05,      /* I =*** */
(PID.TID 0000.0001)                 2.280091982511247E+05,      /* I =*** */
(PID.TID 0000.0001)                 2.350270212514974E+05,      /* I =*** */
(PID.TID 0000.0001)                 2.432074113090727E+05,      /* I =*** */
(PID.TID 0000.0001)                 2.517902458977481E+05,      /* I =*** */
(PID.TID 0000.0001)                 2.602748291748765E+05,      /* I =*** */
(PID.TID 0000.0001)                 2.683519283713031E+05,      /* I =*** */
(PID.TID 0000.0001)                 2.758327097123360E+05,      /* I =*** */
(PID.TID 0000.0001)                 2.825990590161112E+05,      /* I =*** */
(PID.TID 0000.0001)                 2.885735270068257E+05,      /* I =*** */
(PID.TID 0000.0001)                 2.937023624170436E+05,      /* I =*** */
(PID.TID 0000.0001)                 2.979463555053116E+05,      /* I =*** */
(PID.TID 0000.0001)                 3.012761170034232E+05,      /* I =*** */
(PID.TID 0000.0001)                 3.036697958551119E+05,      /* I =*** */
(PID.TID 0000.0001)                 3.051120852373392E+05,      /* I =*** */
(PID.TID 0000.0001)                 3.055938607351786E+05,      /* I =*** */
(PID.TID 0000.0001)                 3.051120852373392E+05,      /* I =*** */
(PID.TID 0000.0001)                 3.036697958551119E+05,      /* I =*** */
(PID.TID 0000.0001)                 3.012761170034232E+05,      /* I =*** */
(PID.TID 0000.0001)                 2.979463555053116E+05,      /* I =*** */
(PID.TID 0000.0001)                 2.937023624170436E+05,      /* I =*** */
(PID.TID 0000.0001)                 2.885735270068257E+05,      /* I =*** */
(PID.TID 0000.0001)                 2.825990590161112E+05,      /* I =*** */
(PID.TID 0000.0001)                 2.758327097123360E+05,      /* I =*** */
(PID.TID 0000.0001)                 2.683519283713031E+05,      /* I =*** */
(PID.TID 0000.0001)                 2.602748291748765E+05,      /* I =*** */
(PID.TID 0000.0001)                 2.517902458977481E+05,      /* I =*** */
(PID.TID 0000.0001)                 2.432074113090727E+05,      /* I =*** */
(PID.TID 0000.0001)                 2.350270212514974E+05,      /* I =*** */
(PID.TID 0000.0001)                 2.280091982511247E+05,      /* I =*** */
(PID.TID 0000.0001)                 2.231462217109019E+05,      /* I =*** */
(PID.TID 0000.0001)                 2.691790288994575E+05,      /* I =*** */
(PID.TID 0000.0001)                 2.697440110688748E+05,      /* I =*** */
(PID.TID 0000.0001)                 2.713923099681594E+05,      /* I =*** */
(PID.TID 0000.0001)                 2.739940126543603E+05,      /* I =*** */
(PID.TID 0000.0001)                 2.773613965982297E+05,      /* I =*** */
(PID.TID 0000.0001)                 2.812793628380409E+05,      /* I =*** */
(PID.TID 0000.0001)                 2.855313568553036E+05,      /* I =*** */
(PID.TID 0000.0001)                 2.899163399166100E+05,      /* I =*** */
(PID.TID 0000.0001)                 2.942570946491559E+05,      /* I =*** */
(PID.TID 0000.0001)                 2.984024308137845E+05,      /* I =*** */
(PID.TID 0000.0001)                 3.022260576657024E+05,      /* I =*** */
(PID.TID 0000.0001)                 3.056241488760194E+05,      /* I =*** */
(PID.TID 0000.0001)                 3.085127702930367E+05,      /* I =*** */
(PID.TID 0000.0001)                 3.108257038551081E+05,      /* I =*** */
(PID.TID 0000.0001)                 3.125128220876768E+05,      /* I =*** */
(PID.TID 0000.0001)                 3.135389817733773E+05,      /* I =*** */
(PID.TID 0000.0001)                 3.138833384868975E+05,      /* I =*** */
(PID.TID 0000.0001)                 3.135389817733773E+05,      /* I =*** */
(PID.TID 0000.0001)                 3.125128220876768E+05,      /* I =*** */
(PID.TID 0000.0001)                 3.108257038551081E+05,      /* I =*** */
(PID.TID 0000.0001)                 3.085127702930367E+05,      /* I =*** */
(PID.TID 0000.0001)                 3.056241488760194E+05,      /* I =*** */
(PID.TID 0000.0001)                 3.022260576657024E+05,      /* I =*** */
(PID.TID 0000.0001)                 2.984024308137845E+05,      /* I =*** */
(PID.TID 0000.0001)                 2.942570946491559E+05,      /* I =*** */
(PID.TID 0000.0001)                 2.899163399166100E+05,      /* I =*** */
(PID.TID 0000.0001)                 2.855313568553036E+05,      /* I =*** */
(PID.TID 0000.0001)                 2.812793628380409E+05,      /* I =*** */
(PID.TID 0000.0001)                 2.773613965982297E+05,      /* I =*** */
(PID.TID 0000.0001)                 2.739940126543603E+05,      /* I =*** */
(PID.TID 0000.0001)                 2.713923099681594E+05,      /* I =*** */
(PID.TID 0000.0001)                 2.697440110688748E+05,      /* I =*** */
(PID.TID 0000.0001)                 2.944035815526416E+05,      /* I =*** */
(PID.TID 0000.0001)                 2.946855298416012E+05,      /* I =*** */
(PID.TID 0000.0001)                 2.955172729319570E+05,      /* I =*** */
(PID.TID 0000.0001)                 2.968577644807372E+05,      /* I =*** */
(PID.TID 0000.0001)                 2.986425300747283E+05,      /* I =*** */
(PID.TID 0000.0001)                 3.007887595276547E+05,      /* I =*** */
(PID.TID 0000.0001)                 3.032011142780227E+05,      /* I =*** */
(PID.TID 0000.0001)                 3.057774680926105E+05,      /* I =*** */
(PID.TID 0000.0001)                 3.084140431300752E+05,      /* I =*** */
(PID.TID 0000.0001)                 3.110096852545575E+05,      /* I =*** */
(PID.TID 0000.0001)                 3.134692484906674E+05,      /* I =*** */
(PID.TID 0000.0001)                 3.157061921391548E+05,      /* I =*** */
(PID.TID 0000.0001)                 3.176445436663792E+05,      /* I =*** */
(PID.TID 0000.0001)                 3.192203744905325E+05,      /* I =*** */
(PID.TID 0000.0001)                 3.203829033749552E+05,      /* I =*** */
(PID.TID 0000.0001)                 3.210953041945421E+05,      /* I =*** */
(PID.TID 0000.0001)                 3.213352627063766E+05,      /* I =*** */
(PID.TID 0000.0001)                 3.210953041945421E+05,      /* I =*** */
(PID.TID 0000.0001)                 3.203829033749552E+05,      /* I =*** */
(PID.TID 0000.0001)                 3.192203744905325E+05,      /* I =*** */
(PID.TID 0000.0001)                 3.176445436663792E+05,      /* I =*** */
(PID.TID 0000.0001)                 3.157061921391548E+05,      /* I =*** */
(PID.TID 0000.0001)                 3.134692484906674E+05,      /* I =*** */
(PID.TID 0000.0001)                 3.110096852545575E+05,      /* I =*** */
(PID.TID 0000.0001)                 3.084140431300752E+05,      /* I =*** */
(PID.TID 0000.0001)                 3.057774680926105E+05,      /* I =*** */
(PID.TID 0000.0001)                 3.032011142780227E+05,      /* I =*** */
(PID.TID 0000.0001)                 3.007887595276547E+05,      /* I =*** */
(PID.TID 0000.0001)                 2.986425300747283E+05,      /* I =*** */
(PID.TID 0000.0001)                 2.968577644807372E+05,      /* I =*** */
(PID.TID 0000.0001)                 2.955172729319570E+05,      /* I =*** */
(PID.TID 0000.0001)                 2.946855298416012E+05,      /* I =*** */
(PID.TID 0000.0001)                 3.011625828699101E+05,      /* I =*** */
(PID.TID 0000.0001)                 3.013880313304323E+05,      /* I =*** */
(PID.TID 0000.0001)                 3.020546438966793E+05,      /* I =*** */
(PID.TID 0000.0001)                 3.031337933484788E+05,      /* I =*** */
(PID.TID 0000.0001)                 3.045796060304602E+05,      /* I =*** */
(PID.TID 0000.0001)                 3.063315047037455E+05,      /* I =*** */
(PID.TID 0000.0001)                 3.083173884297931E+05,      /* I =*** */
(PID.TID 0000.0001)                 3.104571666747115E+05,      /* I =*** */
(PID.TID 0000.0001)                 3.126663860714039E+05,      /* I =*** */
(PID.TID 0000.0001)                 3.148597400258051E+05,      /* I =*** */
(PID.TID 0000.0001)                 3.169543146344334E+05,      /* I =*** */
(PID.TID 0000.0001)                 3.188724835261090E+05,      /* I =*** */
(PID.TID 0000.0001)                 3.205444100809708E+05,      /* I =*** */
(PID.TID 0000.0001)                 3.219101453522735E+05,      /* I =*** */
(PID.TID 0000.0001)                 3.229213257990267E+05,      /* I =*** */
(PID.TID 0000.0001)                 3.235424806617432E+05,      /* I =*** */
(PID.TID 0000.0001)                 3.237519587277332E+05,      /* I =*** */
(PID.TID 0000.0001)                 3.235424806617432E+05,      /* I =*** */
(PID.TID 0000.0001)                 3.229213257990267E+05,      /* I =*** */
(PID.TID 0000.0001)                 3.219101453522735E+05,      /* I =*** */
(PID.TID 0000.0001)                 3.205444100809708E+05,      /* I =*** */
(PID.TID 0000.0001)                 3.188724835261090E+05,      /* I =*** */
(PID.TID 0000.0001)                 3.169543146344334E+05,      /* I =*** */
(PID.TID 0000.0001)                 3.148597400258051E+05,      /* I =*** */
(PID.TID 0000.0001)                 3.126663860714039E+05,      /* I =*** */
(PID.TID 0000.0001)                 3.104571666747115E+05,      /* I =*** */
(PID.TID 0000.0001)                 3.083173884297931E+05,      /* I =*** */
(PID.TID 0000.0001)                 3.063315047037455E+05,      /* I =*** */
(PID.TID 0000.0001)                 3.045796060304602E+05,      /* I =*** */
(PID.TID 0000.0001)                 3.031337933484788E+05,      /* I =*** */
(PID.TID 0000.0001)                 3.020546438966793E+05,      /* I =*** */
(PID.TID 0000.0001)                 3.013880313304323E+05,      /* I =*** */
(PID.TID 0000.0001)                 2.898778860929753E+05,      /* I =*** */
(PID.TID 0000.0001)                 2.902014963196903E+05,      /* I =*** */
(PID.TID 0000.0001)                 2.911545759497503E+05,      /* I =*** */
(PID.TID 0000.0001)                 2.926858150999570E+05,      /* I =*** */
(PID.TID 0000.0001)                 2.947156814824661E+05,      /* I =*** */
(PID.TID 0000.0001)                 2.971438911279353E+05,      /* I =*** */
(PID.TID 0000.0001)                 2.998575078578424E+05,      /* I =*** */
(PID.TID 0000.0001)                 3.027384270746730E+05,      /* I =*** */
(PID.TID 0000.0001)                 3.056695262148454E+05,      /* I =*** */
(PID.TID 0000.0001)                 3.085392837309391E+05,      /* I =*** */
(PID.TID 0000.0001)                 3.112450203725228E+05,      /* I =*** */
(PID.TID 0000.0001)                 3.136950734167099E+05,      /* I =*** */
(PID.TID 0000.0001)                 3.158102274380121E+05,      /* I =*** */
(PID.TID 0000.0001)                 3.175246633946013E+05,      /* I =*** */
(PID.TID 0000.0001)                 3.187866049463793E+05,      /* I =*** */
(PID.TID 0000.0001)                 3.195587672164279E+05,      /* I =*** */
(PID.TID 0000.0001)                 3.198186602283748E+05,      /* I =*** */
(PID.TID 0000.0001)                 3.195587672164279E+05,      /* I =*** */
(PID.TID 0000.0001)                 3.187866049463793E+05,      /* I =*** */
(PID.TID 0000.0001)                 3.175246633946013E+05,      /* I =*** */
(PID.TID 0000.0001)                 3.158102274380121E+05,      /* I =*** */
(PID.TID 0000.0001)                 3.136950734167099E+05,      /* I =*** */
(PID.TID 0000.0001)                 3.112450203725228E+05,      /* I =*** */
(PID.TID 0000.0001)                 3.085392837309391E+05,      /* I =*** */
(PID.TID 0000.0001)                 3.056695262148454E+05,      /* I =*** */
(PID.TID 0000.0001)                 3.027384270746730E+05,      /* I =*** */
(PID.TID 0000.0001)                 2.998575078578424E+05,      /* I =*** */
(PID.TID 0000.0001)                 2.971438911279353E+05,      /* I =*** */
(PID.TID 0000.0001)                 2.947156814824661E+05,      /* I =*** */
(PID.TID 0000.0001)                 2.926858150999570E+05,      /* I =*** */
(PID.TID 0000.0001)                 2.911545759497503E+05,      /* I =*** */
(PID.TID 0000.0001)                 2.902014963196903E+05,      /* I =*** */
(PID.TID 0000.0001)                 2.597126963772147E+05,      /* I =*** */
(PID.TID 0000.0001)                 2.604251753978458E+05,      /* I =*** */
(PID.TID 0000.0001)                 2.624913419950762E+05,      /* I =*** */
(PID.TID 0000.0001)                 2.657171026045170E+05,      /* I =*** */
(PID.TID 0000.0001)                 2.698333765987323E+05,      /* I =*** */
(PID.TID 0000.0001)                 2.745483070885214E+05,      /* I =*** */
(PID.TID 0000.0001)                 2.795857322165681E+05,      /* I =*** */
(PID.TID 0000.0001)                 2.847050239641676E+05,      /* I =*** */
(PID.TID 0000.0001)                 2.897064557701324E+05,      /* I =*** */
(PID.TID 0000.0001)                 2.944285521457881E+05,      /* I =*** */
(PID.TID 0000.0001)                 2.987424211573701E+05,      /* I =*** */
(PID.TID 0000.0001)                 3.025458844490738E+05,      /* I =*** */
(PID.TID 0000.0001)                 3.057585931291658E+05,      /* I =*** */
(PID.TID 0000.0001)                 3.083184102117021E+05,      /* I =*** */
(PID.TID 0000.0001)                 3.101789360579298E+05,      /* I =*** */
(PID.TID 0000.0001)                 3.113079261689634E+05,      /* I =*** */
(PID.TID 0000.0001)                 3.116863538419811E+05,      /* I =*** */
(PID.TID 0000.0001)                 3.113079261689634E+05,      /* I =*** */
(PID.TID 0000.0001)                 3.101789360579298E+05,      /* I =*** */
(PID.TID 0000.0001)                 3.083184102117021E+05,      /* I =*** */
(PID.TID 0000.0001)                 3.057585931291658E+05,      /* I =*** */
(PID.TID 0000.0001)                 3.025458844490738E+05,      /* I =*** */
(PID.TID 0000.0001)                 2.987424211573701E+05,      /* I =*** */
(PID.TID 0000.0001)                 2.944285521457881E+05,      /* I =*** */
(PID.TID 0000.0001)                 2.897064557701324E+05,      /* I =*** */
(PID.TID 0000.0001)                 2.847050239641676E+05,      /* I =*** */
(PID.TID 0000.0001)                 2.795857322165681E+05,      /* I =*** */
(PID.TID 0000.0001)                 2.745483070885214E+05,      /* I =*** */
(PID.TID 0000.0001)                 2.698333765987323E+05,      /* I =*** */
(PID.TID 0000.0001)                 2.657171026045170E+05,      /* I =*** */
(PID.TID 0000.0001)                 2.624913419950762E+05,      /* I =*** */
(PID.TID 0000.0001)                 2.604251753978458E+05,      /* I =*** */
(PID.TID 0000.0001)                 2.038999045536999E+05,      /* I =*** */
(PID.TID 0000.0001)                 2.065831270737828E+05,      /* I =*** */
(PID.TID 0000.0001)                 2.136805470037770E+05,      /* I =*** */
(PID.TID 0000.0001)                 2.232765156085036E+05,      /* I =*** */
(PID.TID 0000.0001)                 2.337827806959134E+05,      /* I =*** */
(PID.TID 0000.0001)                 2.442595803598652E+05,      /* I =*** */
(PID.TID 0000.0001)                 2.542258701469758E+05,      /* I =*** */
(PID.TID 0000.0001)                 2.634480837010961E+05,      /* I =*** */
(PID.TID 0000.0001)                 2.718130194543262E+05,      /* I =*** */
(PID.TID 0000.0001)                 2.792633203662760E+05,      /* I =*** */
(PID.TID 0000.0001)                 2.857667801901064E+05,      /* I =*** */
(PID.TID 0000.0001)                 2.913023320552112E+05,      /* I =*** */
(PID.TID 0000.0001)                 2.958540382632805E+05,      /* I =*** */
(PID.TID 0000.0001)                 2.994088616915566E+05,      /* I =*** */
(PID.TID 0000.0001)                 3.019561639980273E+05,      /* I =*** */
(PID.TID 0000.0001)                 3.034879107376657E+05,      /* I =*** */
(PID.TID 0000.0001)                 3.039990657490951E+05,      /* I =*** */
(PID.TID 0000.0001)                 3.034879107376657E+05,      /* I =*** */
(PID.TID 0000.0001)                 3.019561639980273E+05,      /* I =*** */
(PID.TID 0000.0001)                 2.994088616915566E+05,      /* I =*** */
(PID.TID 0000.0001)                 2.958540382632805E+05,      /* I =*** */
(PID.TID 0000.0001)                 2.913023320552112E+05,      /* I =*** */
(PID.TID 0000.0001)                 2.857667801901064E+05,      /* I =*** */
(PID.TID 0000.0001)                 2.792633203662760E+05,      /* I =*** */
(PID.TID 0000.0001)                 2.718130194543262E+05,      /* I =*** */
(PID.TID 0000.0001)                 2.634480837010961E+05,      /* I =*** */
(PID.TID 0000.0001)                 2.542258701469758E+05,      /* I =*** */
(PID.TID 0000.0001)                 2.442595803598652E+05,      /* I =*** */
(PID.TID 0000.0001)                 2.337827806959134E+05,      /* I =*** */
(PID.TID 0000.0001)                 2.232765156085036E+05,      /* I =*** */
(PID.TID 0000.0001)                 2.136805470037770E+05,      /* I =*** */
(PID.TID 0000.0001)                 2.065831270737828E+05,      /* I =*** */
(PID.TID 0000.0001)                 1.009837800879055E+05,      /* I =*** */
(PID.TID 0000.0001)                 1.403701524205398E+05,      /* I =*** */
(PID.TID 0000.0001)                 1.716197227386011E+05,      /* I =*** */
(PID.TID 0000.0001)                 1.950254041626018E+05,      /* I =*** */
(PID.TID 0000.0001)                 2.138410773065497E+05,      /* I =*** */
(PID.TID 0000.0001)                 2.295958105911512E+05,      /* I =*** */
(PID.TID 0000.0001)                 2.430829951739083E+05,      /* I =*** */
(PID.TID 0000.0001)                 2.547526806712889E+05,      /* I =*** */
(PID.TID 0000.0001)                 2.648750305193301E+05,      /* I =*** */
(PID.TID 0000.0001)                 2.736173771018112E+05,      /* I =*** */
(PID.TID 0000.0001)                 2.810845823202647E+05,      /* I =*** */
(PID.TID 0000.0001)                 2.873420591008078E+05,      /* I =*** */
(PID.TID 0000.0001)                 2.924298293668651E+05,      /* I =*** */
(PID.TID 0000.0001)                 2.963715635865306E+05,      /* I =*** */
(PID.TID 0000.0001)                 2.991805843171258E+05,      /* I =*** */
(PID.TID 0000.0001)                 3.008638765647886E+05,      /* I =*** */
(PID.TID 0000.0001)                 3.014246674484008E+05,      /* I =*** */
(PID.TID 0000.0001)                 3.008638765647886E+05,      /* I =*** */
(PID.TID 0000.0001)                 2.991805843171258E+05,      /* I =*** */
(PID.TID 0000.0001)                 2.963715635865306E+05,      /* I =*** */
(PID.TID 0000.0001)                 2.924298293668651E+05,      /* I =*** */
(PID.TID 0000.0001)                 2.873420591008078E+05,      /* I =*** */
(PID.TID 0000.0001)                 2.810845823202647E+05,      /* I =*** */
(PID.TID 0000.0001)                 2.736173771018112E+05,      /* I =*** */
(PID.TID 0000.0001)                 2.648750305193301E+05,      /* I =*** */
(PID.TID 0000.0001)                 2.547526806712889E+05,      /* I =*** */
(PID.TID 0000.0001)                 2.430829951739083E+05,      /* I =*** */
(PID.TID 0000.0001)                 2.295958105911512E+05,      /* I =*** */
(PID.TID 0000.0001)                 2.138410773065497E+05,      /* I =*** */
(PID.TID 0000.0001)                 1.950254041626018E+05,      /* I =*** */
(PID.TID 0000.0001)                 1.716197227386011E+05,      /* I =*** */
(PID.TID 0000.0001)                 1.403701524205398E+05,      /* I =*** */
(PID.TID 0000.0001)                 2.213884732245467E+05,      /* I =*** */
(PID.TID 0000.0001)                 2.231462217109019E+05,      /* I =*** */
(PID.TID 0000.0001)                 2.280091982511247E+05,      /* I =*** */
(PID.TID 0000.0001)                 2.350270212514974E+05,      /* I =*** */
(PID.TID 0000.0001)                 2.432074113090727E+05,      /* I =*** */
(PID.TID 0000.0001)                 2.517902458977481E+05,      /* I =*** */
(PID.TID 0000.0001)                 2.602748291748765E+05,      /* I =*** */
(PID.TID 0000.0001)                 2.683519283713031E+05,      /* I =*** */
(PID.TID 0000.0001)                 2.758327097123360E+05,      /* I =*** */
(PID.TID 0000.0001)                 2.825990590161112E+05,      /* I =*** */
(PID.TID 0000.0001)                 2.885735270068257E+05,      /* I =*** */
(PID.TID 0000.0001)                 2.937023624170436E+05,      /* I =*** */
(PID.TID 0000.0001)                 2.979463555053116E+05,      /* I =*** */
(PID.TID 0000.0001)                 3.012761170034232E+05,      /* I =*** */
(PID.TID 0000.0001)                 3.036697958551119E+05,      /* I =*** */
(PID.TID 0000.0001)                 3.051120852373392E+05,      /* I =*** */
(PID.TID 0000.0001)                 3.055938607351786E+05,      /* I =*** */
(PID.TID 0000.0001)                 3.051120852373392E+05,      /* I =*** */
(PID.TID 0000.0001)                 3.036697958551119E+05,      /* I =*** */
(PID.TID 0000.0001)                 3.012761170034232E+05,      /* I =*** */
(PID.TID 0000.0001)                 2.979463555053116E+05,      /* I =*** */
(PID.TID 0000.0001)                 2.937023624170436E+05,      /* I =*** */
(PID.TID 0000.0001)                 2.885735270068257E+05,      /* I =*** */
(PID.TID 0000.0001)                 2.825990590161112E+05,      /* I =*** */
(PID.TID 0000.0001)                 2.758327097123360E+05,      /* I =*** */
(PID.TID 0000.0001)                 2.683519283713031E+05,      /* I =*** */
(PID.TID 0000.0001)                 2.602748291748765E+05,      /* I =*** */
(PID.TID 0000.0001)                 2.517902458977481E+05,      /* I =*** */
(PID.TID 0000.0001)                 2.432074113090727E+05,      /* I =*** */
(PID.TID 0000.0001)                 2.350270212514974E+05,      /* I =*** */
(PID.TID 0000.0001)                 2.280091982511247E+05,      /* I =*** */
(PID.TID 0000.0001)                 2.231462217109019E+05,      /* I =*** */
(PID.TID 0000.0001)                 2.691790288994575E+05,      /* I =*** */
(PID.TID 0000.0001)                 2.697440110688748E+05,      /* I =*** */
(PID.TID 0000.0001)                 2.713923099681594E+05,      /* I =*** */
(PID.TID 0000.0001)                 2.739940126543603E+05,      /* I =*** */
(PID.TID 0000.0001)                 2.773613965982297E+05,      /* I =*** */
(PID.TID 0000.0001)                 2.812793628380409E+05,      /* I =*** */
(PID.TID 0000.0001)                 2.855313568553036E+05,      /* I =*** */
(PID.TID 0000.0001)                 2.899163399166100E+05,      /* I =*** */
(PID.TID 0000.0001)                 2.942570946491559E+05,      /* I =*** */
(PID.TID 0000.0001)                 2.984024308137845E+05,      /* I =*** */
(PID.TID 0000.0001)                 3.022260576657024E+05,      /* I =*** */
(PID.TID 0000.0001)                 3.056241488760194E+05,      /* I =*** */
(PID.TID 0000.0001)                 3.085127702930367E+05,      /* I =*** */
(PID.TID 0000.0001)                 3.108257038551081E+05,      /* I =*** */
(PID.TID 0000.0001)                 3.125128220876768E+05,      /* I =*** */
(PID.TID 0000.0001)                 3.135389817733773E+05,      /* I =*** */
(PID.TID 0000.0001)                 3.138833384868975E+05,      /* I =*** */
(PID.TID 0000.0001)                 3.135389817733773E+05,      /* I =*** */
(PID.TID 0000.0001)                 3.125128220876768E+05,      /* I =*** */
(PID.TID 0000.0001)                 3.108257038551081E+05,      /* I =*** */
(PID.TID 0000.0001)                 3.085127702930367E+05,      /* I =*** */
(PID.TID 0000.0001)                 3.056241488760194E+05,      /* I =*** */
(PID.TID 0000.0001)                 3.022260576657024E+05,      /* I =*** */
(PID.TID 0000.0001)                 2.984024308137845E+05,      /* I =*** */
(PID.TID 0000.0001)                 2.942570946491559E+05,      /* I =*** */
(PID.TID 0000.0001)                 2.899163399166100E+05,      /* I =*** */
(PID.TID 0000.0001)                 2.855313568553036E+05,      /* I =*** */
(PID.TID 0000.0001)                 2.812793628380409E+05,      /* I =*** */
(PID.TID 0000.0001)                 2.773613965982297E+05,      /* I =*** */
(PID.TID 0000.0001)                 2.739940126543603E+05,      /* I =*** */
(PID.TID 0000.0001)                 2.713923099681594E+05,      /* I =*** */
(PID.TID 0000.0001)                 2.697440110688748E+05,      /* I =*** */
(PID.TID 0000.0001)                 2.944035815526416E+05,      /* I =*** */
(PID.TID 0000.0001)                 2.946855298416012E+05,      /* I =*** */
(PID.TID 0000.0001)                 2.955172729319570E+05,      /* I =*** */
(PID.TID 0000.0001)                 2.968577644807372E+05,      /* I =*** */
(PID.TID 0000.0001)                 2.986425300747283E+05,      /* I =*** */
(PID.TID 0000.0001)                 3.007887595276547E+05,      /* I =*** */
(PID.TID 0000.0001)                 3.032011142780227E+05,      /* I =*** */
(PID.TID 0000.0001)                 3.057774680926105E+05,      /* I =*** */
(PID.TID 0000.0001)                 3.084140431300752E+05,      /* I =*** */
(PID.TID 0000.0001)                 3.110096852545575E+05,      /* I =*** */
(PID.TID 0000.0001)                 3.134692484906674E+05,      /* I =*** */
(PID.TID 0000.0001)                 3.157061921391548E+05,      /* I =*** */
(PID.TID 0000.0001)                 3.176445436663792E+05,      /* I =*** */
(PID.TID 0000.0001)                 3.192203744905325E+05,      /* I =*** */
(PID.TID 0000.0001)                 3.203829033749552E+05,      /* I =*** */
(PID.TID 0000.0001)                 3.210953041945421E+05,      /* I =*** */
(PID.TID 0000.0001)                 3.213352627063766E+05,      /* I =*** */
(PID.TID 0000.0001)                 3.210953041945421E+05,      /* I =*** */
(PID.TID 0000.0001)                 3.203829033749552E+05,      /* I =*** */
(PID.TID 0000.0001)                 3.192203744905325E+05,      /* I =*** */
(PID.TID 0000.0001)                 3.176445436663792E+05,      /* I =*** */
(PID.TID 0000.0001)                 3.157061921391548E+05,      /* I =*** */
(PID.TID 0000.0001)                 3.134692484906674E+05,      /* I =*** */
(PID.TID 0000.0001)                 3.110096852545575E+05,      /* I =*** */
(PID.TID 0000.0001)                 3.084140431300752E+05,      /* I =*** */
(PID.TID 0000.0001)                 3.057774680926105E+05,      /* I =*** */
(PID.TID 0000.0001)                 3.032011142780227E+05,      /* I =*** */
(PID.TID 0000.0001)                 3.007887595276547E+05,      /* I =*** */
(PID.TID 0000.0001)                 2.986425300747283E+05,      /* I =*** */
(PID.TID 0000.0001)                 2.968577644807372E+05,      /* I =*** */
(PID.TID 0000.0001)                 2.955172729319570E+05,      /* I =*** */
(PID.TID 0000.0001)                 2.946855298416012E+05,      /* I =*** */
(PID.TID 0000.0001)                 3.011625828699101E+05,      /* I =*** */
(PID.TID 0000.0001)                 3.013880313304323E+05,      /* I =*** */
(PID.TID 0000.0001)                 3.020546438966793E+05,      /* I =*** */
(PID.TID 0000.0001)                 3.031337933484788E+05,      /* I =*** */
(PID.TID 0000.0001)                 3.045796060304602E+05,      /* I =*** */
(PID.TID 0000.0001)                 3.063315047037455E+05,      /* I =*** */
(PID.TID 0000.0001)                 3.083173884297931E+05,      /* I =*** */
(PID.TID 0000.0001)                 3.104571666747115E+05,      /* I =*** */
(PID.TID 0000.0001)                 3.126663860714039E+05,      /* I =*** */
(PID.TID 0000.0001)                 3.148597400258051E+05,      /* I =*** */
(PID.TID 0000.0001)                 3.169543146344334E+05,      /* I =*** */
(PID.TID 0000.0001)                 3.188724835261090E+05,      /* I =*** */
(PID.TID 0000.0001)                 3.205444100809708E+05,      /* I =*** */
(PID.TID 0000.0001)                 3.219101453522735E+05,      /* I =*** */
(PID.TID 0000.0001)                 3.229213257990267E+05,      /* I =*** */
(PID.TID 0000.0001)                 3.235424806617432E+05,      /* I =*** */
(PID.TID 0000.0001)                 3.237519587277332E+05,      /* I =*** */
(PID.TID 0000.0001)                 3.235424806617432E+05,      /* I =*** */
(PID.TID 0000.0001)                 3.229213257990267E+05,      /* I =*** */
(PID.TID 0000.0001)                 3.219101453522735E+05,      /* I =*** */
(PID.TID 0000.0001)                 3.205444100809708E+05,      /* I =*** */
(PID.TID 0000.0001)                 3.188724835261090E+05,      /* I =*** */
(PID.TID 0000.0001)                 3.169543146344334E+05,      /* I =*** */
(PID.TID 0000.0001)                 3.148597400258051E+05,      /* I =*** */
(PID.TID 0000.0001)                 3.126663860714039E+05,      /* I =*** */
(PID.TID 0000.0001)                 3.104571666747115E+05,      /* I =*** */
(PID.TID 0000.0001)                 3.083173884297931E+05,      /* I =*** */
(PID.TID 0000.0001)                 3.063315047037455E+05,      /* I =*** */
(PID.TID 0000.0001)                 3.045796060304602E+05,      /* I =*** */
(PID.TID 0000.0001)                 3.031337933484788E+05,      /* I =*** */
(PID.TID 0000.0001)                 3.020546438966793E+05,      /* I =*** */
(PID.TID 0000.0001)                 3.013880313304323E+05,      /* I =*** */
(PID.TID 0000.0001)                 2.898778860929753E+05,      /* I =*** */
(PID.TID 0000.0001)                 2.902014963196903E+05,      /* I =*** */
(PID.TID 0000.0001)                 2.911545759497503E+05,      /* I =*** */
(PID.TID 0000.0001)                 2.926858150999570E+05,      /* I =*** */
(PID.TID 0000.0001)                 2.947156814824661E+05,      /* I =*** */
(PID.TID 0000.0001)                 2.971438911279353E+05,      /* I =*** */
(PID.TID 0000.0001)                 2.998575078578424E+05,      /* I =*** */
(PID.TID 0000.0001)                 3.027384270746730E+05,      /* I =*** */
(PID.TID 0000.0001)                 3.056695262148454E+05,      /* I =*** */
(PID.TID 0000.0001)                 3.085392837309391E+05,      /* I =*** */
(PID.TID 0000.0001)                 3.112450203725228E+05,      /* I =*** */
(PID.TID 0000.0001)                 3.136950734167099E+05,      /* I =*** */
(PID.TID 0000.0001)                 3.158102274380121E+05,      /* I =*** */
(PID.TID 0000.0001)                 3.175246633946013E+05,      /* I =*** */
(PID.TID 0000.0001)                 3.187866049463793E+05,      /* I =*** */
(PID.TID 0000.0001)                 3.195587672164279E+05,      /* I =*** */
(PID.TID 0000.0001)                 3.198186602283748E+05,      /* I =*** */
(PID.TID 0000.0001)                 3.195587672164279E+05,      /* I =*** */
(PID.TID 0000.0001)                 3.187866049463793E+05,      /* I =*** */
(PID.TID 0000.0001)                 3.175246633946013E+05,      /* I =*** */
(PID.TID 0000.0001)                 3.158102274380121E+05,      /* I =*** */
(PID.TID 0000.0001)                 3.136950734167099E+05,      /* I =*** */
(PID.TID 0000.0001)                 3.112450203725228E+05,      /* I =*** */
(PID.TID 0000.0001)                 3.085392837309391E+05,      /* I =*** */
(PID.TID 0000.0001)                 3.056695262148454E+05,      /* I =*** */
(PID.TID 0000.0001)                 3.027384270746730E+05,      /* I =*** */
(PID.TID 0000.0001)                 2.998575078578424E+05,      /* I =*** */
(PID.TID 0000.0001)                 2.971438911279353E+05,      /* I =*** */
(PID.TID 0000.0001)                 2.947156814824661E+05,      /* I =*** */
(PID.TID 0000.0001)                 2.926858150999570E+05,      /* I =*** */
(PID.TID 0000.0001)                 2.911545759497503E+05,      /* I =*** */
(PID.TID 0000.0001)                 2.902014963196903E+05,      /* I =*** */
(PID.TID 0000.0001)                 2.597126963772147E+05,      /* I =*** */
(PID.TID 0000.0001)                 2.604251753978458E+05,      /* I =*** */
(PID.TID 0000.0001)                 2.624913419950762E+05,      /* I =*** */
(PID.TID 0000.0001)                 2.657171026045170E+05,      /* I =*** */
(PID.TID 0000.0001)                 2.698333765987323E+05,      /* I =*** */
(PID.TID 0000.0001)                 2.745483070885214E+05,      /* I =*** */
(PID.TID 0000.0001)                 2.795857322165681E+05,      /* I =*** */
(PID.TID 0000.0001)                 2.847050239641676E+05,      /* I =*** */
(PID.TID 0000.0001)                 2.897064557701324E+05,      /* I =*** */
(PID.TID 0000.0001)                 2.944285521457881E+05,      /* I =*** */
(PID.TID 0000.0001)                 2.987424211573701E+05,      /* I =*** */
(PID.TID 0000.0001)                 3.025458844490738E+05,      /* I =*** */
(PID.TID 0000.0001)                 3.057585931291658E+05,      /* I =*** */
(PID.TID 0000.0001)                 3.083184102117021E+05,      /* I =*** */
(PID.TID 0000.0001)                 3.101789360579298E+05,      /* I =*** */
(PID.TID 0000.0001)                 3.113079261689634E+05,      /* I =*** */
(PID.TID 0000.0001)                 3.116863538419811E+05,      /* I =*** */
(PID.TID 0000.0001)                 3.113079261689634E+05,      /* I =*** */
(PID.TID 0000.0001)                 3.101789360579298E+05,      /* I =*** */
(PID.TID 0000.0001)                 3.083184102117021E+05,      /* I =*** */
(PID.TID 0000.0001)                 3.057585931291658E+05,      /* I =*** */
(PID.TID 0000.0001)                 3.025458844490738E+05,      /* I =*** */
(PID.TID 0000.0001)                 2.987424211573701E+05,      /* I =*** */
(PID.TID 0000.0001)                 2.944285521457881E+05,      /* I =*** */
(PID.TID 0000.0001)                 2.897064557701324E+05,      /* I =*** */
(PID.TID 0000.0001)                 2.847050239641676E+05,      /* I =*** */
(PID.TID 0000.0001)                 2.795857322165681E+05,      /* I =*** */
(PID.TID 0000.0001)                 2.745483070885214E+05,      /* I =*** */
(PID.TID 0000.0001)                 2.698333765987323E+05,      /* I =*** */
(PID.TID 0000.0001)                 2.657171026045170E+05,      /* I =*** */
(PID.TID 0000.0001)                 2.624913419950762E+05,      /* I =*** */
(PID.TID 0000.0001)                 2.604251753978458E+05,      /* I =*** */
(PID.TID 0000.0001)                 2.038999045536999E+05,      /* I =*** */
(PID.TID 0000.0001)                 2.065831270737828E+05,      /* I =*** */
(PID.TID 0000.0001)                 2.136805470037770E+05,      /* I =*** */
(PID.TID 0000.0001)                 2.232765156085036E+05,      /* I =*** */
(PID.TID 0000.0001)                 2.337827806959134E+05,      /* I =*** */
(PID.TID 0000.0001)                 2.442595803598652E+05,      /* I =*** */
(PID.TID 0000.0001)                 2.542258701469758E+05,      /* I =*** */
(PID.TID 0000.0001)                 2.634480837010961E+05,      /* I =*** */
(PID.TID 0000.0001)                 2.718130194543262E+05,      /* I =*** */
(PID.TID 0000.0001)                 2.792633203662760E+05,      /* I =*** */
(PID.TID 0000.0001)                 2.857667801901064E+05,      /* I =*** */
(PID.TID 0000.0001)                 2.913023320552112E+05,      /* I =*** */
(PID.TID 0000.0001)                 2.958540382632805E+05,      /* I =*** */
(PID.TID 0000.0001)                 2.994088616915566E+05,      /* I =*** */
(PID.TID 0000.0001)                 3.019561639980273E+05,      /* I =*** */
(PID.TID 0000.0001)                 3.034879107376657E+05,      /* I =*** */
(PID.TID 0000.0001)                 3.039990657490951E+05,      /* I =*** */
(PID.TID 0000.0001)                 3.034879107376657E+05,      /* I =*** */
(PID.TID 0000.0001)                 3.019561639980273E+05,      /* I =*** */
(PID.TID 0000.0001)                 2.994088616915566E+05,      /* I =*** */
(PID.TID 0000.0001)                 2.958540382632805E+05,      /* I =*** */
(PID.TID 0000.0001)                 2.913023320552112E+05,      /* I =*** */
(PID.TID 0000.0001)                 2.857667801901064E+05,      /* I =*** */
(PID.TID 0000.0001)                 2.792633203662760E+05,      /* I =*** */
(PID.TID 0000.0001)                 2.718130194543262E+05,      /* I =*** */
(PID.TID 0000.0001)                 2.634480837010961E+05,      /* I =*** */
(PID.TID 0000.0001)                 2.542258701469758E+05,      /* I =*** */
(PID.TID 0000.0001)                 2.442595803598652E+05,      /* I =*** */
(PID.TID 0000.0001)                 2.337827806959134E+05,      /* I =*** */
(PID.TID 0000.0001)                 2.232765156085036E+05,      /* I =*** */
(PID.TID 0000.0001)                 2.136805470037770E+05,      /* I =*** */
(PID.TID 0000.0001)                 2.065831270737828E+05       /* I =*** */
(PID.TID 0000.0001)     ;
(PID.TID 0000.0001) dyG =  /* dyG(1,:,1,:) ( m - cartesian, degrees - spherical ) */
(PID.TID 0000.0001)                 1.009837800879055E+05,      /* J =  1 */
(PID.TID 0000.0001)                 1.534505834330338E+05,      /* J =  2 */
(PID.TID 0000.0001)                 1.823321598773926E+05,      /* J =  3 */
(PID.TID 0000.0001)                 2.038999045536999E+05       /* J =  4 */
(PID.TID 0000.0001)     ;
(PID.TID 0000.0001) dxC =  /* dxC(:,1,:,1) ( m - cartesian, degrees - spherical ) */
(PID.TID 0000.0001)                 1.114203141013064E+05,      /* I =  1 */
(PID.TID 0000.0001)                 1.391343389937106E+05,      /* I =  2 */
(PID.TID 0000.0001)                 1.709574999026266E+05,      /* I =  3 */
(PID.TID 0000.0001)                 1.946503699269892E+05,      /* I =  4 */
(PID.TID 0000.0001)                 2.135964483342134E+05,      /* I =  5 */
(PID.TID 0000.0001)                 2.294195678257306E+05,      /* I =  6 */
(PID.TID 0000.0001)                 2.429464709770498E+05,      /* I =  7 */
(PID.TID 0000.0001)                 2.546408290696998E+05,      /* I =  8 */
(PID.TID 0000.0001)                 2.647791839299727E+05,      /* I =  9 */
(PID.TID 0000.0001)                 2.735321911346108E+05,      /* I = 10 */
(PID.TID 0000.0001)                 2.810065951609633E+05,      /* I = 11 */
(PID.TID 0000.0001)                 2.872689479506990E+05,      /* I = 12 */
(PID.TID 0000.0001)                 2.923599955312932E+05,      /* I = 13 */
(PID.TID 0000.0001)                 2.963038832565530E+05,      /* I = 14 */
(PID.TID 0000.0001)                 2.991142470004740E+05,      /* I = 15 */
(PID.TID 0000.0001)                 3.007982711627968E+05,      /* I = 16 */
(PID.TID 0000.0001)                 3.013593857228136E+05,      /* I = 17 */
(PID.TID 0000.0001)                 3.007982711627968E+05,      /* I = 18 */
(PID.TID 0000.0001)                 2.991142470004740E+05,      /* I = 19 */
(PID.TID 0000.0001)                 2.963038832565530E+05,      /* I = 20 */
(PID.TID 0000.0001)                 2.923599955312932E+05,      /* I = 21 */
(PID.TID 0000.0001)                 2.872689479506990E+05,      /* I = 22 */
(PID.TID 0000.0001)                 2.810065951609633E+05,      /* I = 23 */
(PID.TID 0000.0001)                 2.735321911346108E+05,      /* I = 24 */
(PID.TID 0000.0001)                 2.647791839299727E+05,      /* I = 25 */
(PID.TID 0000.0001)                 2.546408290696998E+05,      /* I = 26 */
(PID.TID 0000.0001)                 2.429464709770498E+05,      /* I = 27 */
(PID.TID 0000.0001)                 2.294195678257306E+05,      /* I = 28 */
(PID.TID 0000.0001)                 2.135964483342134E+05,      /* I = 29 */
(PID.TID 0000.0001)                 1.946503699269892E+05,      /* I = 30 */
(PID.TID 0000.0001)                 1.709574999026266E+05,      /* I = 31 */
(PID.TID 0000.0001)                 1.391343389937106E+05,      /* I = 32 */
(PID.TID 0000.0001)                 2.216367828252819E+05,      /* I = 33 */
(PID.TID 0000.0001)                 2.233318358853647E+05,      /* I = 34 */
(PID.TID 0000.0001)                 2.281334130974475E+05,      /* I = 35 */
(PID.TID 0000.0001)                 2.350890794471406E+05,      /* I = 36 */
(PID.TID 0000.0001)                 2.432236510574240E+05,      /* I = 37 */
(PID.TID 0000.0001)                 2.517777164226335E+05,      /* I = 38 */
(PID.TID 0000.0001)                 2.602456285594502E+05,      /* I = 39 */
(PID.TID 0000.0001)                 2.683133946112084E+05,      /* I = 40 */
(PID.TID 0000.0001)                 2.757889673278915E+05,      /* I = 41 */
(PID.TID 0000.0001)                 2.825523346347177E+05,      /* I = 42 */
(PID.TID 0000.0001)                 2.885249994841755E+05,      /* I = 43 */
(PID.TID 0000.0001)                 2.936526595780224E+05,      /* I = 44 */
(PID.TID 0000.0001)                 2.978958309396700E+05,      /* I = 45 */
(PID.TID 0000.0001)                 3.012249990222233E+05,      /* I = 46 */
(PID.TID 0000.0001)                 3.036182638196822E+05,      /* I = 47 */
(PID.TID 0000.0001)                 3.050603049789793E+05,      /* I = 48 */
(PID.TID 0000.0001)                 3.055420860601236E+05,      /* I = 49 */
(PID.TID 0000.0001)                 3.050603049789793E+05,      /* I = 50 */
(PID.TID 0000.0001)                 3.036182638196822E+05,      /* I = 51 */
(PID.TID 0000.0001)                 3.012249990222233E+05,      /* I = 52 */
(PID.TID 0000.0001)                 2.978958309396700E+05,      /* I = 53 */
(PID.TID 0000.0001)                 2.936526595780224E+05,      /* I = 54 */
(PID.TID 0000.0001)                 2.885249994841755E+05,      /* I = 55 */
(PID.TID 0000.0001)                 2.825523346347177E+05,      /* I = 56 */
(PID.TID 0000.0001)                 2.757889673278915E+05,      /* I = 57 */
(PID.TID 0000.0001)                 2.683133946112084E+05,      /* I = 58 */
(PID.TID 0000.0001)                 2.602456285594502E+05,      /* I = 59 */
(PID.TID 0000.0001)                 2.517777164226335E+05,      /* I = 60 */
(PID.TID 0000.0001)                 2.432236510574240E+05,      /* I = 61 */
(PID.TID 0000.0001)                 2.350890794471406E+05,      /* I = 62 */
(PID.TID 0000.0001)                 2.281334130974475E+05,      /* I = 63 */
(PID.TID 0000.0001)                 2.233318358853647E+05,      /* I = 64 */
(PID.TID 0000.0001)                 2.692787333338535E+05,      /* I = 65 */
(PID.TID 0000.0001)                 2.698316926768863E+05,      /* I = 66 */
(PID.TID 0000.0001)                 2.714713968328591E+05,      /* I = 67 */
(PID.TID 0000.0001)                 2.740607206150700E+05,      /* I = 68 */
(PID.TID 0000.0001)                 2.774139821809750E+05,      /* I = 69 */
(PID.TID 0000.0001)                 2.813178027434184E+05,      /* I = 70 */
(PID.TID 0000.0001)                 2.855567371326078E+05,      /* I = 71 */
(PID.TID 0000.0001)                 2.899302743931477E+05,      /* I = 72 */
(PID.TID 0000.0001)                 2.942613213681001E+05,      /* I = 73 */
(PID.TID 0000.0001)                 2.983985950890736E+05,      /* I = 74 */
(PID.TID 0000.0001)                 3.022156296499031E+05,      /* I = 75 */
(PID.TID 0000.0001)                 3.056084178247824E+05,      /* I = 76 */
(PID.TID 0000.0001)                 3.084928732605239E+05,      /* I = 77 */
(PID.TID 0000.0001)                 3.108026640008289E+05,      /* I = 78 */
(PID.TID 0000.0001)                 3.124875845707635E+05,      /* I = 79 */
(PID.TID 0000.0001)                 3.135124429988134E+05,      /* I = 80 */
(PID.TID 0000.0001)                 3.138564503561421E+05,      /* I = 81 */
(PID.TID 0000.0001)                 3.135124429988134E+05,      /* I = 82 */
(PID.TID 0000.0001)                 3.124875845707635E+05,      /* I = 83 */
(PID.TID 0000.0001)                 3.108026640008289E+05,      /* I = 84 */
(PID.TID 0000.0001)                 3.084928732605239E+05,      /* I = 85 */
(PID.TID 0000.0001)                 3.056084178247824E+05,      /* I = 86 */
(PID.TID 0000.0001)                 3.022156296499031E+05,      /* I = 87 */
(PID.TID 0000.0001)                 2.983985950890736E+05,      /* I = 88 */
(PID.TID 0000.0001)                 2.942613213681001E+05,      /* I = 89 */
(PID.TID 0000.0001)                 2.899302743931477E+05,      /* I = 90 */
(PID.TID 0000.0001)                 2.855567371326078E+05,      /* I = 91 */
(PID.TID 0000.0001)                 2.813178027434184E+05,      /* I = 92 */
(PID.TID 0000.0001)                 2.774139821809750E+05,      /* I = 93 */
(PID.TID 0000.0001)                 2.740607206150700E+05,      /* I = 94 */
(PID.TID 0000.0001)                 2.714713968328591E+05,      /* I = 95 */
(PID.TID 0000.0001)                 2.698316926768863E+05,      /* I = 96 */
(PID.TID 0000.0001)                 2.944741346384699E+05,      /* I = 97 */
(PID.TID 0000.0001)                 2.947534032044371E+05,      /* I = 98 */
(PID.TID 0000.0001)                 2.955821683657630E+05,      /* I = 99 */
(PID.TID 0000.0001)                 2.969179832044766E+05,      /* I =100 */
(PID.TID 0000.0001)                 2.986967441200144E+05,      /* I =101 */
(PID.TID 0000.0001)                 3.008360640320133E+05,      /* I =102 */
(PID.TID 0000.0001)                 3.032410228118516E+05,      /* I =103 */
(PID.TID 0000.0001)                 3.058098685576374E+05,      /* I =104 */
(PID.TID 0000.0001)                 3.084391345892176E+05,      /* I =105 */
(PID.TID 0000.0001)                 3.110279121390598E+05,      /* I =106 */
(PID.TID 0000.0001)                 3.134812420732829E+05,      /* I =107 */
(PID.TID 0000.0001)                 3.157127231496777E+05,      /* I =108 */
(PID.TID 0000.0001)                 3.176464858965941E+05,      /* I =109 */
(PID.TID 0000.0001)                 3.192186772490244E+05,      /* I =110 */
(PID.TID 0000.0001)                 3.203785701445474E+05,      /* I =111 */
(PID.TID 0000.0001)                 3.210893751531767E+05,      /* I =112 */
(PID.TID 0000.0001)                 3.213288727261454E+05,      /* I =113 */
(PID.TID 0000.0001)                 3.210893751531767E+05,      /* I =114 */
(PID.TID 0000.0001)                 3.203785701445474E+05,      /* I =115 */
(PID.TID 0000.0001)                 3.192186772490244E+05,      /* I =116 */
(PID.TID 0000.0001)                 3.176464858965941E+05,      /* I =117 */
(PID.TID 0000.0001)                 3.157127231496777E+05,      /* I =118 */
(PID.TID 0000.0001)                 3.134812420732829E+05,      /* I =119 */
(PID.TID 0000.0001)                 3.110279121390598E+05,      /* I =120 */
(PID.TID 0000.0001)                 3.084391345892176E+05,      /* I =121 */
(PID.TID 0000.0001)                 3.058098685576374E+05,      /* I =122 */
(PID.TID 0000.0001)                 3.032410228118516E+05,      /* I =123 */
(PID.TID 0000.0001)                 3.008360640320133E+05,      /* I =124 */
(PID.TID 0000.0001)                 2.986967441200144E+05,      /* I =125 */
(PID.TID 0000.0001)                 2.969179832044766E+05,      /* I =126 */
(PID.TID 0000.0001)                 2.955821683657630E+05,      /* I =127 */
(PID.TID 0000.0001)                 2.947534032044371E+05,      /* I =128 */
(PID.TID 0000.0001)                 3.012281885409289E+05,      /* I =129 */
(PID.TID 0000.0001)                 3.014528555318499E+05,      /* I =130 */
(PID.TID 0000.0001)                 3.021172674809921E+05,      /* I =131 */
(PID.TID 0000.0001)                 3.031928954490276E+05,      /* I =132 */
(PID.TID 0000.0001)                 3.046340673197290E+05,      /* I =133 */
(PID.TID 0000.0001)                 3.063804565966232E+05,      /* I =134 */
(PID.TID 0000.0001)                 3.083602390447406E+05,      /* I =135 */
(PID.TID 0000.0001)                 3.104936054761689E+05,      /* I =136 */
(PID.TID 0000.0001)                 3.126963716684348E+05,      /* I =137 */
(PID.TID 0000.0001)                 3.148834765567928E+05,      /* I =138 */
(PID.TID 0000.0001)                 3.169722218029966E+05,      /* I =139 */
(PID.TID 0000.0001)                 3.188851642086189E+05,      /* I =140 */
(PID.TID 0000.0001)                 3.205526180491640E+05,      /* I =141 */
(PID.TID 0000.0001)                 3.219147544224371E+05,      /* I =142 */
(PID.TID 0000.0001)                 3.229233008154936E+05,      /* I =143 */
(PID.TID 0000.0001)                 3.235428501703109E+05,      /* I =144 */
(PID.TID 0000.0001)                 3.237518583690030E+05,      /* I =145 */
(PID.TID 0000.0001)                 3.235428501703109E+05,      /* I =146 */
(PID.TID 0000.0001)                 3.229233008154936E+05,      /* I =147 */
(PID.TID 0000.0001)                 3.219147544224371E+05,      /* I =148 */
(PID.TID 0000.0001)                 3.205526180491640E+05,      /* I =149 */
(PID.TID 0000.0001)                 3.188851642086189E+05,      /* I =150 */
(PID.TID 0000.0001)                 3.169722218029966E+05,      /* I =151 */
(PID.TID 0000.0001)                 3.148834765567928E+05,      /* I =152 */
(PID.TID 0000.0001)                 3.126963716684348E+05,      /* I =153 */
(PID.TID 0000.0001)                 3.104936054761689E+05,      /* I =154 */
(PID.TID 0000.0001)                 3.083602390447406E+05,      /* I =155 */
(PID.TID 0000.0001)                 3.063804565966232E+05,      /* I =156 */
(PID.TID 0000.0001)                 3.046340673197290E+05,      /* I =157 */
(PID.TID 0000.0001)                 3.031928954490276E+05,      /* I =158 */
(PID.TID 0000.0001)                 3.021172674809921E+05,      /* I =159 */
(PID.TID 0000.0001)                 3.014528555318499E+05,      /* I =160 */
(PID.TID 0000.0001)                 2.899523122489403E+05,      /* I =161 */
(PID.TID 0000.0001)                 2.902718654756529E+05,      /* I =162 */
(PID.TID 0000.0001)                 2.912213227212650E+05,      /* I =163 */
(PID.TID 0000.0001)                 2.927469477866010E+05,      /* I =164 */
(PID.TID 0000.0001)                 2.947697367015565E+05,      /* I =165 */
(PID.TID 0000.0001)                 2.971899783337052E+05,      /* I =166 */
(PID.TID 0000.0001)                 2.998952659771185E+05,      /* I =167 */
(PID.TID 0000.0001)                 3.027679303727833E+05,      /* I =168 */
(PID.TID 0000.0001)                 3.056911758960931E+05,      /* I =169 */
(PID.TID 0000.0001)                 3.085537100134814E+05,      /* I =170 */
(PID.TID 0000.0001)                 3.112530061794861E+05,      /* I =171 */
(PID.TID 0000.0001)                 3.136975008108302E+05,      /* I =172 */
(PID.TID 0000.0001)                 3.158080427002144E+05,      /* I =173 */
(PID.TID 0000.0001)                 3.175188551173586E+05,      /* I =174 */
(PID.TID 0000.0001)                 3.187781900626006E+05,      /* I =175 */
(PID.TID 0000.0001)                 3.195487812384848E+05,      /* I =176 */
(PID.TID 0000.0001)                 3.198082246942282E+05,      /* I =177 */
(PID.TID 0000.0001)                 3.195487812384848E+05,      /* I =178 */
(PID.TID 0000.0001)                 3.187781900626006E+05,      /* I =179 */
(PID.TID 0000.0001)                 3.175188551173586E+05,      /* I =180 */
(PID.TID 0000.0001)                 3.158080427002144E+05,      /* I =181 */
(PID.TID 0000.0001)                 3.136975008108302E+05,      /* I =182 */
(PID.TID 0000.0001)                 3.112530061794861E+05,      /* I =183 */
(PID.TID 0000.0001)                 3.085537100134814E+05,      /* I =184 */
(PID.TID 0000.0001)                 3.056911758960931E+05,      /* I =185 */
(PID.TID 0000.0001)                 3.027679303727833E+05,      /* I =186 */
(PID.TID 0000.0001)                 2.998952659771185E+05,      /* I =187 */
(PID.TID 0000.0001)                 2.971899783337052E+05,      /* I =188 */
(PID.TID 0000.0001)                 2.947697367015565E+05,      /* I =189 */
(PID.TID 0000.0001)                 2.927469477866010E+05,      /* I =190 */
(PID.TID 0000.0001)                 2.912213227212650E+05,      /* I =191 */
(PID.TID 0000.0001)                 2.902718654756529E+05,      /* I =192 */
(PID.TID 0000.0001)                 2.598293319150326E+05,      /* I =193 */
(PID.TID 0000.0001)                 2.605247136571591E+05,      /* I =194 */
(PID.TID 0000.0001)                 2.625781987034077E+05,      /* I =195 */
(PID.TID 0000.0001)                 2.657864830834272E+05,      /* I =196 */
(PID.TID 0000.0001)                 2.698839526285321E+05,      /* I =197 */
(PID.TID 0000.0001)                 2.745812566278220E+05,      /* I =198 */
(PID.TID 0000.0001)                 2.796034826143155E+05,      /* I =199 */
(PID.TID 0000.0001)                 2.847102987256835E+05,      /* I =200 */
(PID.TID 0000.0001)                 2.897017600496954E+05,      /* I =201 */
(PID.TID 0000.0001)                 2.944159886434956E+05,      /* I =202 */
(PID.TID 0000.0001)                 2.987236876295224E+05,      /* I =203 */
(PID.TID 0000.0001)                 3.025223454914123E+05,      /* I =204 */
(PID.TID 0000.0001)                 3.057313676343125E+05,      /* I =205 */
(PID.TID 0000.0001)                 3.082884490394393E+05,      /* I =206 */
(PID.TID 0000.0001)                 3.101470823422900E+05,      /* I =207 */
(PID.TID 0000.0001)                 3.112749589313555E+05,      /* I =208 */
(PID.TID 0000.0001)                 3.116531025121516E+05,      /* I =209 */
(PID.TID 0000.0001)                 3.112749589313555E+05,      /* I =210 */
(PID.TID 0000.0001)                 3.101470823422900E+05,      /* I =211 */
(PID.TID 0000.0001)                 3.082884490394393E+05,      /* I =212 */
(PID.TID 0000.0001)                 3.057313676343125E+05,      /* I =213 */
(PID.TID 0000.0001)                 3.025223454914123E+05,      /* I =214 */
(PID.TID 0000.0001)                 2.987236876295224E+05,      /* I =215 */
(PID.TID 0000.0001)                 2.944159886434956E+05,      /* I =216 */
(PID.TID 0000.0001)                 2.897017600496954E+05,      /* I =217 */
(PID.TID 0000.0001)                 2.847102987256835E+05,      /* I =218 */
(PID.TID 0000.0001)                 2.796034826143155E+05,      /* I =219 */
(PID.TID 0000.0001)                 2.745812566278220E+05,      /* I =220 */
(PID.TID 0000.0001)                 2.698839526285321E+05,      /* I =221 */
(PID.TID 0000.0001)                 2.657864830834272E+05,      /* I =222 */
(PID.TID 0000.0001)                 2.625781987034077E+05,      /* I =223 */
(PID.TID 0000.0001)                 2.605247136571591E+05,      /* I =224 */
(PID.TID 0000.0001)                 2.042717761866506E+05,      /* I =225 */
(PID.TID 0000.0001)                 2.068350806004581E+05,      /* I =226 */
(PID.TID 0000.0001)                 2.138086927377143E+05,      /* I =227 */
(PID.TID 0000.0001)                 2.233078585447743E+05,      /* I =228 */
(PID.TID 0000.0001)                 2.337608097814075E+05,      /* I =229 */
(PID.TID 0000.0001)                 2.442130550248370E+05,      /* I =230 */
(PID.TID 0000.0001)                 2.541694919462758E+05,      /* I =231 */
(PID.TID 0000.0001)                 2.633885327540043E+05,      /* I =232 */
(PID.TID 0000.0001)                 2.717530548984243E+05,      /* I =233 */
(PID.TID 0000.0001)                 2.792039108711187E+05,      /* I =234 */
(PID.TID 0000.0001)                 2.857081239734438E+05,      /* I =235 */
(PID.TID 0000.0001)                 2.912443307196133E+05,      /* I =236 */
(PID.TID 0000.0001)                 2.957965112547295E+05,      /* I =237 */
(PID.TID 0000.0001)                 2.993516374039656E+05,      /* I =238 */
(PID.TID 0000.0001)                 3.018991112427414E+05,      /* I =239 */
(PID.TID 0000.0001)                 3.034309408025300E+05,      /* I =240 */
(PID.TID 0000.0001)                 3.039422096857757E+05,      /* I =241 */
(PID.TID 0000.0001)                 3.034309408025300E+05,      /* I =242 */
(PID.TID 0000.0001)                 3.018991112427414E+05,      /* I =243 */
(PID.TID 0000.0001)                 2.993516374039656E+05,      /* I =244 */
(PID.TID 0000.0001)                 2.957965112547295E+05,      /* I =245 */
(PID.TID 0000.0001)                 2.912443307196133E+05,      /* I =246 */
(PID.TID 0000.0001)                 2.857081239734438E+05,      /* I =247 */
(PID.TID 0000.0001)                 2.792039108711187E+05,      /* I =248 */
(PID.TID 0000.0001)                 2.717530548984243E+05,      /* I =249 */
(PID.TID 0000.0001)                 2.633885327540043E+05,      /* I =250 */
(PID.TID 0000.0001)                 2.541694919462758E+05,      /* I =251 */
(PID.TID 0000.0001)                 2.442130550248370E+05,      /* I =252 */
(PID.TID 0000.0001)                 2.337608097814075E+05,      /* I =253 */
(PID.TID 0000.0001)                 2.233078585447743E+05,      /* I =254 */
(PID.TID 0000.0001)                 2.138086927377143E+05,      /* I =255 */
(PID.TID 0000.0001)                 2.068350806004581E+05,      /* I =256 */
(PID.TID 0000.0001)                 1.114203141013064E+05,      /* I =257 */
(PID.TID 0000.0001)                 1.391343389937106E+05,      /* I =258 */
(PID.TID 0000.0001)                 1.709574999026266E+05,      /* I =259 */
(PID.TID 0000.0001)                 1.946503699269892E+05,      /* I =260 */
(PID.TID 0000.0001)                 2.135964483342134E+05,      /* I =261 */
(PID.TID 0000.0001)                 2.294195678257306E+05,      /* I =262 */
(PID.TID 0000.0001)                 2.429464709770498E+05,      /* I =263 */
(PID.TID 0000.0001)                 2.546408290696998E+05,      /* I =264 */
(PID.TID 0000.0001)                 2.647791839299727E+05,      /* I =265 */
(PID.TID 0000.0001)                 2.735321911346108E+05,      /* I =266 */
(PID.TID 0000.0001)                 2.810065951609633E+05,      /* I =267 */
(PID.TID 0000.0001)                 2.872689479506990E+05,      /* I =268 */
(PID.TID 0000.0001)                 2.923599955312932E+05,      /* I =269 */
(PID.TID 0000.0001)                 2.963038832565530E+05,      /* I =270 */
(PID.TID 0000.0001)                 2.991142470004740E+05,      /* I =271 */
(PID.TID 0000.0001)                 3.007982711627968E+05,      /* I =272 */
(PID.TID 0000.0001)                 3.013593857228136E+05,      /* I =273 */
(PID.TID 0000.0001)                 3.007982711627968E+05,      /* I =274 */
(PID.TID 0000.0001)                 2.991142470004740E+05,      /* I =275 */
(PID.TID 0000.0001)                 2.963038832565530E+05,      /* I =276 */
(PID.TID 0000.0001)                 2.923599955312932E+05,      /* I =277 */
(PID.TID 0000.0001)                 2.872689479506990E+05,      /* I =278 */
(PID.TID 0000.0001)                 2.810065951609633E+05,      /* I =279 */
(PID.TID 0000.0001)                 2.735321911346108E+05,      /* I =280 */
(PID.TID 0000.0001)                 2.647791839299727E+05,      /* I =281 */
(PID.TID 0000.0001)                 2.546408290696998E+05,      /* I =282 */
(PID.TID 0000.0001)                 2.429464709770498E+05,      /* I =283 */
(PID.TID 0000.0001)                 2.294195678257306E+05,      /* I =284 */
(PID.TID 0000.0001)                 2.135964483342134E+05,      /* I =285 */
(PID.TID 0000.0001)                 1.946503699269892E+05,      /* I =286 */
(PID.TID 0000.0001)                 1.709574999026266E+05,      /* I =287 */
(PID.TID 0000.0001)                 1.391343389937106E+05,      /* I =288 */
(PID.TID 0000.0001)                 2.216367828252819E+05,      /* I =289 */
(PID.TID 0000.0001)                 2.233318358853647E+05,      /* I =290 */
(PID.TID 0000.0001)                 2.281334130974475E+05,      /* I =291 */
(PID.TID 0000.0001)                 2.350890794471406E+05,      /* I =292 */
(PID.TID 0000.0001)                 2.432236510574240E+05,      /* I =293 */
(PID.TID 0000.0001)                 2.517777164226335E+05,      /* I =294 */
(PID.TID 0000.0001)                 2.602456285594502E+05,      /* I =295 */
(PID.TID 0000.0001)                 2.683133946112084E+05,      /* I =296 */
(PID.TID 0000.0001)                 2.757889673278915E+05,      /* I =297 */
(PID.TID 0000.0001)                 2.825523346347177E+05,      /* I =298 */
(PID.TID 0000.0001)                 2.885249994841755E+05,      /* I =299 */
(PID.TID 0000.0001)                 2.936526595780224E+05,      /* I =300 */
(PID.TID 0000.0001)                 2.978958309396700E+05,      /* I =301 */
(PID.TID 0000.0001)                 3.012249990222233E+05,      /* I =302 */
(PID.TID 0000.0001)                 3.036182638196822E+05,      /* I =303 */
(PID.TID 0000.0001)                 3.050603049789793E+05,      /* I =304 */
(PID.TID 0000.0001)                 3.055420860601236E+05,      /* I =305 */
(PID.TID 0000.0001)                 3.050603049789793E+05,      /* I =306 */
(PID.TID 0000.0001)                 3.036182638196822E+05,      /* I =307 */
(PID.TID 0000.0001)                 3.012249990222233E+05,      /* I =308 */
(PID.TID 0000.0001)                 2.978958309396700E+05,      /* I =309 */
(PID.TID 0000.0001)                 2.936526595780224E+05,      /* I =310 */
(PID.TID 0000.0001)                 2.885249994841755E+05,      /* I =311 */
(PID.TID 0000.0001)                 2.825523346347177E+05,      /* I =312 */
(PID.TID 0000.0001)                 2.757889673278915E+05,      /* I =313 */
(PID.TID 0000.0001)                 2.683133946112084E+05,      /* I =314 */
(PID.TID 0000.0001)                 2.602456285594502E+05,      /* I =315 */
(PID.TID 0000.0001)                 2.517777164226335E+05,      /* I =316 */
(PID.TID 0000.0001)                 2.432236510574240E+05,      /* I =317 */
(PID.TID 0000.0001)                 2.350890794471406E+05,      /* I =318 */
(PID.TID 0000.0001)                 2.281334130974475E+05,      /* I =319 */
(PID.TID 0000.0001)                 2.233318358853647E+05,      /* I =320 */
(PID.TID 0000.0001)                 2.692787333338535E+05,      /* I =321 */
(PID.TID 0000.0001)                 2.698316926768863E+05,      /* I =322 */
(PID.TID 0000.0001)                 2.714713968328591E+05,      /* I =323 */
(PID.TID 0000.0001)                 2.740607206150700E+05,      /* I =324 */
(PID.TID 0000.0001)                 2.774139821809750E+05,      /* I =325 */
(PID.TID 0000.0001)                 2.813178027434184E+05,      /* I =326 */
(PID.TID 0000.0001)                 2.855567371326078E+05,      /* I =327 */
(PID.TID 0000.0001)                 2.899302743931477E+05,      /* I =328 */
(PID.TID 0000.0001)                 2.942613213681001E+05,      /* I =329 */
(PID.TID 0000.0001)                 2.983985950890736E+05,      /* I =330 */
(PID.TID 0000.0001)                 3.022156296499031E+05,      /* I =331 */
(PID.TID 0000.0001)                 3.056084178247824E+05,      /* I =332 */
(PID.TID 0000.0001)                 3.084928732605239E+05,      /* I =333 */
(PID.TID 0000.0001)                 3.108026640008289E+05,      /* I =334 */
(PID.TID 0000.0001)                 3.124875845707635E+05,      /* I =335 */
(PID.TID 0000.0001)                 3.135124429988134E+05,      /* I =336 */
(PID.TID 0000.0001)                 3.138564503561421E+05,      /* I =337 */
(PID.TID 0000.0001)                 3.135124429988134E+05,      /* I =338 */
(PID.TID 0000.0001)                 3.124875845707635E+05,      /* I =339 */
(PID.TID 0000.0001)                 3.108026640008289E+05,      /* I =340 */
(PID.TID 0000.0001)                 3.084928732605239E+05,      /* I =341 */
(PID.TID 0000.0001)                 3.056084178247824E+05,      /* I =342 */
(PID.TID 0000.0001)                 3.022156296499031E+05,      /* I =343 */
(PID.TID 0000.0001)                 2.983985950890736E+05,      /* I =344 */
(PID.TID 0000.0001)                 2.942613213681001E+05,      /* I =345 */
(PID.TID 0000.0001)                 2.899302743931477E+05,      /* I =346 */
(PID.TID 0000.0001)                 2.855567371326078E+05,      /* I =347 */
(PID.TID 0000.0001)                 2.813178027434184E+05,      /* I =348 */
(PID.TID 0000.0001)                 2.774139821809750E+05,      /* I =349 */
(PID.TID 0000.0001)                 2.740607206150700E+05,      /* I =350 */
(PID.TID 0000.0001)                 2.714713968328591E+05,      /* I =351 */
(PID.TID 0000.0001)                 2.698316926768863E+05,      /* I =352 */
(PID.TID 0000.0001)                 2.944741346384699E+05,      /* I =353 */
(PID.TID 0000.0001)                 2.947534032044371E+05,      /* I =354 */
(PID.TID 0000.0001)                 2.955821683657630E+05,      /* I =355 */
(PID.TID 0000.0001)                 2.969179832044766E+05,      /* I =356 */
(PID.TID 0000.0001)                 2.986967441200144E+05,      /* I =357 */
(PID.TID 0000.0001)                 3.008360640320133E+05,      /* I =358 */
(PID.TID 0000.0001)                 3.032410228118516E+05,      /* I =359 */
(PID.TID 0000.0001)                 3.058098685576374E+05,      /* I =360 */
(PID.TID 0000.0001)                 3.084391345892176E+05,      /* I =361 */
(PID.TID 0000.0001)                 3.110279121390598E+05,      /* I =362 */
(PID.TID 0000.0001)                 3.134812420732829E+05,      /* I =363 */
(PID.TID 0000.0001)                 3.157127231496777E+05,      /* I =364 */
(PID.TID 0000.0001)                 3.176464858965941E+05,      /* I =365 */
(PID.TID 0000.0001)                 3.192186772490244E+05,      /* I =366 */
(PID.TID 0000.0001)                 3.203785701445474E+05,      /* I =367 */
(PID.TID 0000.0001)                 3.210893751531767E+05,      /* I =368 */
(PID.TID 0000.0001)                 3.213288727261454E+05,      /* I =369 */
(PID.TID 0000.0001)                 3.210893751531767E+05,      /* I =370 */
(PID.TID 0000.0001)                 3.203785701445474E+05,      /* I =371 */
(PID.TID 0000.0001)                 3.192186772490244E+05,      /* I =372 */
(PID.TID 0000.0001)                 3.176464858965941E+05,      /* I =373 */
(PID.TID 0000.0001)                 3.157127231496777E+05,      /* I =374 */
(PID.TID 0000.0001)                 3.134812420732829E+05,      /* I =375 */
(PID.TID 0000.0001)                 3.110279121390598E+05,      /* I =376 */
(PID.TID 0000.0001)                 3.084391345892176E+05,      /* I =377 */
(PID.TID 0000.0001)                 3.058098685576374E+05,      /* I =378 */
(PID.TID 0000.0001)                 3.032410228118516E+05,      /* I =379 */
(PID.TID 0000.0001)                 3.008360640320133E+05,      /* I =380 */
(PID.TID 0000.0001)                 2.986967441200144E+05,      /* I =381 */
(PID.TID 0000.0001)                 2.969179832044766E+05,      /* I =382 */
(PID.TID 0000.0001)                 2.955821683657630E+05,      /* I =383 */
(PID.TID 0000.0001)                 2.947534032044371E+05,      /* I =384 */
(PID.TID 0000.0001)                 3.012281885409289E+05,      /* I =385 */
(PID.TID 0000.0001)                 3.014528555318499E+05,      /* I =386 */
(PID.TID 0000.0001)                 3.021172674809921E+05,      /* I =387 */
(PID.TID 0000.0001)                 3.031928954490276E+05,      /* I =388 */
(PID.TID 0000.0001)                 3.046340673197290E+05,      /* I =389 */
(PID.TID 0000.0001)                 3.063804565966232E+05,      /* I =390 */
(PID.TID 0000.0001)                 3.083602390447406E+05,      /* I =391 */
(PID.TID 0000.0001)                 3.104936054761689E+05,      /* I =392 */
(PID.TID 0000.0001)                 3.126963716684348E+05,      /* I =393 */
(PID.TID 0000.0001)                 3.148834765567928E+05,      /* I =394 */
(PID.TID 0000.0001)                 3.169722218029966E+05,      /* I =395 */
(PID.TID 0000.0001)                 3.188851642086189E+05,      /* I =396 */
(PID.TID 0000.0001)                 3.205526180491640E+05,      /* I =397 */
(PID.TID 0000.0001)                 3.219147544224371E+05,      /* I =398 */
(PID.TID 0000.0001)                 3.229233008154936E+05,      /* I =399 */
(PID.TID 0000.0001)                 3.235428501703109E+05,      /* I =400 */
(PID.TID 0000.0001)                 3.237518583690030E+05,      /* I =401 */
(PID.TID 0000.0001)                 3.235428501703109E+05,      /* I =402 */
(PID.TID 0000.0001)                 3.229233008154936E+05,      /* I =403 */
(PID.TID 0000.0001)                 3.219147544224371E+05,      /* I =404 */
(PID.TID 0000.0001)                 3.205526180491640E+05,      /* I =405 */
(PID.TID 0000.0001)                 3.188851642086189E+05,      /* I =406 */
(PID.TID 0000.0001)                 3.169722218029966E+05,      /* I =407 */
(PID.TID 0000.0001)                 3.148834765567928E+05,      /* I =408 */
(PID.TID 0000.0001)                 3.126963716684348E+05,      /* I =409 */
(PID.TID 0000.0001)                 3.104936054761689E+05,      /* I =410 */
(PID.TID 0000.0001)                 3.083602390447406E+05,      /* I =411 */
(PID.TID 0000.0001)                 3.063804565966232E+05,      /* I =412 */
(PID.TID 0000.0001)                 3.046340673197290E+05,      /* I =413 */
(PID.TID 0000.0001)                 3.031928954490276E+05,      /* I =414 */
(PID.TID 0000.0001)                 3.021172674809921E+05,      /* I =415 */
(PID.TID 0000.0001)                 3.014528555318499E+05,      /* I =416 */
(PID.TID 0000.0001)                 2.899523122489403E+05,      /* I =417 */
(PID.TID 0000.0001)                 2.902718654756529E+05,      /* I =418 */
(PID.TID 0000.0001)                 2.912213227212650E+05,      /* I =419 */
(PID.TID 0000.0001)                 2.927469477866010E+05,      /* I =420 */
(PID.TID 0000.0001)                 2.947697367015565E+05,      /* I =421 */
(PID.TID 0000.0001)                 2.971899783337052E+05,      /* I =422 */
(PID.TID 0000.0001)                 2.998952659771185E+05,      /* I =423 */
(PID.TID 0000.0001)                 3.027679303727833E+05,      /* I =424 */
(PID.TID 0000.0001)                 3.056911758960931E+05,      /* I =425 */
(PID.TID 0000.0001)                 3.085537100134814E+05,      /* I =426 */
(PID.TID 0000.0001)                 3.112530061794861E+05,      /* I =427 */
(PID.TID 0000.0001)                 3.136975008108302E+05,      /* I =428 */
(PID.TID 0000.0001)                 3.158080427002144E+05,      /* I =429 */
(PID.TID 0000.0001)                 3.175188551173586E+05,      /* I =430 */
(PID.TID 0000.0001)                 3.187781900626006E+05,      /* I =431 */
(PID.TID 0000.0001)                 3.195487812384848E+05,      /* I =432 */
(PID.TID 0000.0001)                 3.198082246942282E+05,      /* I =433 */
(PID.TID 0000.0001)                 3.195487812384848E+05,      /* I =434 */
(PID.TID 0000.0001)                 3.187781900626006E+05,      /* I =435 */
(PID.TID 0000.0001)                 3.175188551173586E+05,      /* I =436 */
(PID.TID 0000.0001)                 3.158080427002144E+05,      /* I =437 */
(PID.TID 0000.0001)                 3.136975008108302E+05,      /* I =438 */
(PID.TID 0000.0001)                 3.112530061794861E+05,      /* I =439 */
(PID.TID 0000.0001)                 3.085537100134814E+05,      /* I =440 */
(PID.TID 0000.0001)                 3.056911758960931E+05,      /* I =441 */
(PID.TID 0000.0001)                 3.027679303727833E+05,      /* I =442 */
(PID.TID 0000.0001)                 2.998952659771185E+05,      /* I =443 */
(PID.TID 0000.0001)                 2.971899783337052E+05,      /* I =444 */
(PID.TID 0000.0001)                 2.947697367015565E+05,      /* I =445 */
(PID.TID 0000.0001)                 2.927469477866010E+05,      /* I =446 */
(PID.TID 0000.0001)                 2.912213227212650E+05,      /* I =447 */
(PID.TID 0000.0001)                 2.902718654756529E+05,      /* I =448 */
(PID.TID 0000.0001)                 2.598293319150326E+05,      /* I =449 */
(PID.TID 0000.0001)                 2.605247136571591E+05,      /* I =450 */
(PID.TID 0000.0001)                 2.625781987034077E+05,      /* I =451 */
(PID.TID 0000.0001)                 2.657864830834272E+05,      /* I =452 */
(PID.TID 0000.0001)                 2.698839526285321E+05,      /* I =453 */
(PID.TID 0000.0001)                 2.745812566278220E+05,      /* I =454 */
(PID.TID 0000.0001)                 2.796034826143155E+05,      /* I =455 */
(PID.TID 0000.0001)                 2.847102987256835E+05,      /* I =456 */
(PID.TID 0000.0001)                 2.897017600496954E+05,      /* I =457 */
(PID.TID 0000.0001)                 2.944159886434956E+05,      /* I =458 */
(PID.TID 0000.0001)                 2.987236876295224E+05,      /* I =459 */
(PID.TID 0000.0001)                 3.025223454914123E+05,      /* I =460 */
(PID.TID 0000.0001)                 3.057313676343125E+05,      /* I =461 */
(PID.TID 0000.0001)                 3.082884490394393E+05,      /* I =462 */
(PID.TID 0000.0001)                 3.101470823422900E+05,      /* I =463 */
(PID.TID 0000.0001)                 3.112749589313555E+05,      /* I =464 */
(PID.TID 0000.0001)                 3.116531025121516E+05,      /* I =465 */
(PID.TID 0000.0001)                 3.112749589313555E+05,      /* I =466 */
(PID.TID 0000.0001)                 3.101470823422900E+05,      /* I =467 */
(PID.TID 0000.0001)                 3.082884490394393E+05,      /* I =468 */
(PID.TID 0000.0001)                 3.057313676343125E+05,      /* I =469 */
(PID.TID 0000.0001)                 3.025223454914123E+05,      /* I =470 */
(PID.TID 0000.0001)                 2.987236876295224E+05,      /* I =471 */
(PID.TID 0000.0001)                 2.944159886434956E+05,      /* I =472 */
(PID.TID 0000.0001)                 2.897017600496954E+05,      /* I =473 */
(PID.TID 0000.0001)                 2.847102987256835E+05,      /* I =474 */
(PID.TID 0000.0001)                 2.796034826143155E+05,      /* I =475 */
(PID.TID 0000.0001)                 2.745812566278220E+05,      /* I =476 */
(PID.TID 0000.0001)                 2.698839526285321E+05,      /* I =477 */
(PID.TID 0000.0001)                 2.657864830834272E+05,      /* I =478 */
(PID.TID 0000.0001)                 2.625781987034077E+05,      /* I =479 */
(PID.TID 0000.0001)                 2.605247136571591E+05,      /* I =480 */
(PID.TID 0000.0001)                 2.042717761866506E+05,      /* I =481 */
(PID.TID 0000.0001)                 2.068350806004581E+05,      /* I =482 */
(PID.TID 0000.0001)                 2.138086927377143E+05,      /* I =483 */
(PID.TID 0000.0001)                 2.233078585447743E+05,      /* I =484 */
(PID.TID 0000.0001)                 2.337608097814075E+05,      /* I =485 */
(PID.TID 0000.0001)                 2.442130550248370E+05,      /* I =486 */
(PID.TID 0000.0001)                 2.541694919462758E+05,      /* I =487 */
(PID.TID 0000.0001)                 2.633885327540043E+05,      /* I =488 */
(PID.TID 0000.0001)                 2.717530548984243E+05,      /* I =489 */
(PID.TID 0000.0001)                 2.792039108711187E+05,      /* I =490 */
(PID.TID 0000.0001)                 2.857081239734438E+05,      /* I =491 */
(PID.TID 0000.0001)                 2.912443307196133E+05,      /* I =492 */
(PID.TID 0000.0001)                 2.957965112547295E+05,      /* I =493 */
(PID.TID 0000.0001)                 2.993516374039656E+05,      /* I =494 */
(PID.TID 0000.0001)                 3.018991112427414E+05,      /* I =495 */
(PID.TID 0000.0001)                 3.034309408025300E+05,      /* I =496 */
(PID.TID 0000.0001)                 3.039422096857757E+05,      /* I =497 */
(PID.TID 0000.0001)                 3.034309408025300E+05,      /* I =498 */
(PID.TID 0000.0001)                 3.018991112427414E+05,      /* I =499 */
(PID.TID 0000.0001)                 2.993516374039656E+05,      /* I =500 */
(PID.TID 0000.0001)                 2.957965112547295E+05,      /* I =501 */
(PID.TID 0000.0001)                 2.912443307196133E+05,      /* I =502 */
(PID.TID 0000.0001)                 2.857081239734438E+05,      /* I =503 */
(PID.TID 0000.0001)                 2.792039108711187E+05,      /* I =504 */
(PID.TID 0000.0001)                 2.717530548984243E+05,      /* I =505 */
(PID.TID 0000.0001)                 2.633885327540043E+05,      /* I =506 */
(PID.TID 0000.0001)                 2.541694919462758E+05,      /* I =507 */
(PID.TID 0000.0001)                 2.442130550248370E+05,      /* I =508 */
(PID.TID 0000.0001)                 2.337608097814075E+05,      /* I =509 */
(PID.TID 0000.0001)                 2.233078585447743E+05,      /* I =510 */
(PID.TID 0000.0001)                 2.138086927377143E+05,      /* I =511 */
(PID.TID 0000.0001)                 2.068350806004581E+05,      /* I =512 */
(PID.TID 0000.0001)                 1.114203141013064E+05,      /* I =513 */
(PID.TID 0000.0001)                 1.391343389937106E+05,      /* I =514 */
(PID.TID 0000.0001)                 1.709574999026266E+05,      /* I =515 */
(PID.TID 0000.0001)                 1.946503699269892E+05,      /* I =516 */
(PID.TID 0000.0001)                 2.135964483342134E+05,      /* I =517 */
(PID.TID 0000.0001)                 2.294195678257306E+05,      /* I =518 */
(PID.TID 0000.0001)                 2.429464709770498E+05,      /* I =519 */
(PID.TID 0000.0001)                 2.546408290696998E+05,      /* I =520 */
(PID.TID 0000.0001)                 2.647791839299727E+05,      /* I =521 */
(PID.TID 0000.0001)                 2.735321911346108E+05,      /* I =522 */
(PID.TID 0000.0001)                 2.810065951609633E+05,      /* I =523 */
(PID.TID 0000.0001)                 2.872689479506990E+05,      /* I =524 */
(PID.TID 0000.0001)                 2.923599955312932E+05,      /* I =525 */
(PID.TID 0000.0001)                 2.963038832565530E+05,      /* I =526 */
(PID.TID 0000.0001)                 2.991142470004740E+05,      /* I =527 */
(PID.TID 0000.0001)                 3.007982711627968E+05,      /* I =528 */
(PID.TID 0000.0001)                 3.013593857228136E+05,      /* I =529 */
(PID.TID 0000.0001)                 3.007982711627968E+05,      /* I =530 */
(PID.TID 0000.0001)                 2.991142470004740E+05,      /* I =531 */
(PID.TID 0000.0001)                 2.963038832565530E+05,      /* I =532 */
(PID.TID 0000.0001)                 2.923599955312932E+05,      /* I =533 */
(PID.TID 0000.0001)                 2.872689479506990E+05,      /* I =534 */
(PID.TID 0000.0001)                 2.810065951609633E+05,      /* I =535 */
(PID.TID 0000.0001)                 2.735321911346108E+05,      /* I =536 */
(PID.TID 0000.0001)                 2.647791839299727E+05,      /* I =537 */
(PID.TID 0000.0001)                 2.546408290696998E+05,      /* I =538 */
(PID.TID 0000.0001)                 2.429464709770498E+05,      /* I =539 */
(PID.TID 0000.0001)                 2.294195678257306E+05,      /* I =540 */
(PID.TID 0000.0001)                 2.135964483342134E+05,      /* I =541 */
(PID.TID 0000.0001)                 1.946503699269892E+05,      /* I =542 */
(PID.TID 0000.0001)                 1.709574999026266E+05,      /* I =543 */
(PID.TID 0000.0001)                 1.391343389937106E+05,      /* I =544 */
(PID.TID 0000.0001)                 2.216367828252819E+05,      /* I =545 */
(PID.TID 0000.0001)                 2.233318358853647E+05,      /* I =546 */
(PID.TID 0000.0001)                 2.281334130974475E+05,      /* I =547 */
(PID.TID 0000.0001)                 2.350890794471406E+05,      /* I =548 */
(PID.TID 0000.0001)                 2.432236510574240E+05,      /* I =549 */
(PID.TID 0000.0001)                 2.517777164226335E+05,      /* I =550 */
(PID.TID 0000.0001)                 2.602456285594502E+05,      /* I =551 */
(PID.TID 0000.0001)                 2.683133946112084E+05,      /* I =552 */
(PID.TID 0000.0001)                 2.757889673278915E+05,      /* I =553 */
(PID.TID 0000.0001)                 2.825523346347177E+05,      /* I =554 */
(PID.TID 0000.0001)                 2.885249994841755E+05,      /* I =555 */
(PID.TID 0000.0001)                 2.936526595780224E+05,      /* I =556 */
(PID.TID 0000.0001)                 2.978958309396700E+05,      /* I =557 */
(PID.TID 0000.0001)                 3.012249990222233E+05,      /* I =558 */
(PID.TID 0000.0001)                 3.036182638196822E+05,      /* I =559 */
(PID.TID 0000.0001)                 3.050603049789793E+05,      /* I =560 */
(PID.TID 0000.0001)                 3.055420860601236E+05,      /* I =561 */
(PID.TID 0000.0001)                 3.050603049789793E+05,      /* I =562 */
(PID.TID 0000.0001)                 3.036182638196822E+05,      /* I =563 */
(PID.TID 0000.0001)                 3.012249990222233E+05,      /* I =564 */
(PID.TID 0000.0001)                 2.978958309396700E+05,      /* I =565 */
(PID.TID 0000.0001)                 2.936526595780224E+05,      /* I =566 */
(PID.TID 0000.0001)                 2.885249994841755E+05,      /* I =567 */
(PID.TID 0000.0001)                 2.825523346347177E+05,      /* I =568 */
(PID.TID 0000.0001)                 2.757889673278915E+05,      /* I =569 */
(PID.TID 0000.0001)                 2.683133946112084E+05,      /* I =570 */
(PID.TID 0000.0001)                 2.602456285594502E+05,      /* I =571 */
(PID.TID 0000.0001)                 2.517777164226335E+05,      /* I =572 */
(PID.TID 0000.0001)                 2.432236510574240E+05,      /* I =573 */
(PID.TID 0000.0001)                 2.350890794471406E+05,      /* I =574 */
(PID.TID 0000.0001)                 2.281334130974475E+05,      /* I =575 */
(PID.TID 0000.0001)                 2.233318358853647E+05,      /* I =576 */
(PID.TID 0000.0001)                 2.692787333338535E+05,      /* I =577 */
(PID.TID 0000.0001)                 2.698316926768863E+05,      /* I =578 */
(PID.TID 0000.0001)                 2.714713968328591E+05,      /* I =579 */
(PID.TID 0000.0001)                 2.740607206150700E+05,      /* I =580 */
(PID.TID 0000.0001)                 2.774139821809750E+05,      /* I =581 */
(PID.TID 0000.0001)                 2.813178027434184E+05,      /* I =582 */
(PID.TID 0000.0001)                 2.855567371326078E+05,      /* I =583 */
(PID.TID 0000.0001)                 2.899302743931477E+05,      /* I =584 */
(PID.TID 0000.0001)                 2.942613213681001E+05,      /* I =585 */
(PID.TID 0000.0001)                 2.983985950890736E+05,      /* I =586 */
(PID.TID 0000.0001)                 3.022156296499031E+05,      /* I =587 */
(PID.TID 0000.0001)                 3.056084178247824E+05,      /* I =588 */
(PID.TID 0000.0001)                 3.084928732605239E+05,      /* I =589 */
(PID.TID 0000.0001)                 3.108026640008289E+05,      /* I =590 */
(PID.TID 0000.0001)                 3.124875845707635E+05,      /* I =591 */
(PID.TID 0000.0001)                 3.135124429988134E+05,      /* I =592 */
(PID.TID 0000.0001)                 3.138564503561421E+05,      /* I =593 */
(PID.TID 0000.0001)                 3.135124429988134E+05,      /* I =594 */
(PID.TID 0000.0001)                 3.124875845707635E+05,      /* I =595 */
(PID.TID 0000.0001)                 3.108026640008289E+05,      /* I =596 */
(PID.TID 0000.0001)                 3.084928732605239E+05,      /* I =597 */
(PID.TID 0000.0001)                 3.056084178247824E+05,      /* I =598 */
(PID.TID 0000.0001)                 3.022156296499031E+05,      /* I =599 */
(PID.TID 0000.0001)                 2.983985950890736E+05,      /* I =600 */
(PID.TID 0000.0001)                 2.942613213681001E+05,      /* I =601 */
(PID.TID 0000.0001)                 2.899302743931477E+05,      /* I =602 */
(PID.TID 0000.0001)                 2.855567371326078E+05,      /* I =603 */
(PID.TID 0000.0001)                 2.813178027434184E+05,      /* I =604 */
(PID.TID 0000.0001)                 2.774139821809750E+05,      /* I =605 */
(PID.TID 0000.0001)                 2.740607206150700E+05,      /* I =606 */
(PID.TID 0000.0001)                 2.714713968328591E+05,      /* I =607 */
(PID.TID 0000.0001)                 2.698316926768863E+05,      /* I =608 */
(PID.TID 0000.0001)                 2.944741346384699E+05,      /* I =609 */
(PID.TID 0000.0001)                 2.947534032044371E+05,      /* I =610 */
(PID.TID 0000.0001)                 2.955821683657630E+05,      /* I =611 */
(PID.TID 0000.0001)                 2.969179832044766E+05,      /* I =612 */
(PID.TID 0000.0001)                 2.986967441200144E+05,      /* I =613 */
(PID.TID 0000.0001)                 3.008360640320133E+05,      /* I =614 */
(PID.TID 0000.0001)                 3.032410228118516E+05,      /* I =615 */
(PID.TID 0000.0001)                 3.058098685576374E+05,      /* I =616 */
(PID.TID 0000.0001)                 3.084391345892176E+05,      /* I =617 */
(PID.TID 0000.0001)                 3.110279121390598E+05,      /* I =618 */
(PID.TID 0000.0001)                 3.134812420732829E+05,      /* I =619 */
(PID.TID 0000.0001)                 3.157127231496777E+05,      /* I =620 */
(PID.TID 0000.0001)                 3.176464858965941E+05,      /* I =621 */
(PID.TID 0000.0001)                 3.192186772490244E+05,      /* I =622 */
(PID.TID 0000.0001)                 3.203785701445474E+05,      /* I =623 */
(PID.TID 0000.0001)                 3.210893751531767E+05,      /* I =624 */
(PID.TID 0000.0001)                 3.213288727261454E+05,      /* I =625 */
(PID.TID 0000.0001)                 3.210893751531767E+05,      /* I =626 */
(PID.TID 0000.0001)                 3.203785701445474E+05,      /* I =627 */
(PID.TID 0000.0001)                 3.192186772490244E+05,      /* I =628 */
(PID.TID 0000.0001)                 3.176464858965941E+05,      /* I =629 */
(PID.TID 0000.0001)                 3.157127231496777E+05,      /* I =630 */
(PID.TID 0000.0001)                 3.134812420732829E+05,      /* I =631 */
(PID.TID 0000.0001)                 3.110279121390598E+05,      /* I =632 */
(PID.TID 0000.0001)                 3.084391345892176E+05,      /* I =633 */
(PID.TID 0000.0001)                 3.058098685576374E+05,      /* I =634 */
(PID.TID 0000.0001)                 3.032410228118516E+05,      /* I =635 */
(PID.TID 0000.0001)                 3.008360640320133E+05,      /* I =636 */
(PID.TID 0000.0001)                 2.986967441200144E+05,      /* I =637 */
(PID.TID 0000.0001)                 2.969179832044766E+05,      /* I =638 */
(PID.TID 0000.0001)                 2.955821683657630E+05,      /* I =639 */
(PID.TID 0000.0001)                 2.947534032044371E+05,      /* I =640 */
(PID.TID 0000.0001)                 3.012281885409289E+05,      /* I =641 */
(PID.TID 0000.0001)                 3.014528555318499E+05,      /* I =642 */
(PID.TID 0000.0001)                 3.021172674809921E+05,      /* I =643 */
(PID.TID 0000.0001)                 3.031928954490276E+05,      /* I =644 */
(PID.TID 0000.0001)                 3.046340673197290E+05,      /* I =645 */
(PID.TID 0000.0001)                 3.063804565966232E+05,      /* I =646 */
(PID.TID 0000.0001)                 3.083602390447406E+05,      /* I =647 */
(PID.TID 0000.0001)                 3.104936054761689E+05,      /* I =648 */
(PID.TID 0000.0001)                 3.126963716684348E+05,      /* I =649 */
(PID.TID 0000.0001)                 3.148834765567928E+05,      /* I =650 */
(PID.TID 0000.0001)                 3.169722218029966E+05,      /* I =651 */
(PID.TID 0000.0001)                 3.188851642086189E+05,      /* I =652 */
(PID.TID 0000.0001)                 3.205526180491640E+05,      /* I =653 */
(PID.TID 0000.0001)                 3.219147544224371E+05,      /* I =654 */
(PID.TID 0000.0001)                 3.229233008154936E+05,      /* I =655 */
(PID.TID 0000.0001)                 3.235428501703109E+05,      /* I =656 */
(PID.TID 0000.0001)                 3.237518583690030E+05,      /* I =657 */
(PID.TID 0000.0001)                 3.235428501703109E+05,      /* I =658 */
(PID.TID 0000.0001)                 3.229233008154936E+05,      /* I =659 */
(PID.TID 0000.0001)                 3.219147544224371E+05,      /* I =660 */
(PID.TID 0000.0001)                 3.205526180491640E+05,      /* I =661 */
(PID.TID 0000.0001)                 3.188851642086189E+05,      /* I =662 */
(PID.TID 0000.0001)                 3.169722218029966E+05,      /* I =663 */
(PID.TID 0000.0001)                 3.148834765567928E+05,      /* I =664 */
(PID.TID 0000.0001)                 3.126963716684348E+05,      /* I =665 */
(PID.TID 0000.0001)                 3.104936054761689E+05,      /* I =666 */
(PID.TID 0000.0001)                 3.083602390447406E+05,      /* I =667 */
(PID.TID 0000.0001)                 3.063804565966232E+05,      /* I =668 */
(PID.TID 0000.0001)                 3.046340673197290E+05,      /* I =669 */
(PID.TID 0000.0001)                 3.031928954490276E+05,      /* I =670 */
(PID.TID 0000.0001)                 3.021172674809921E+05,      /* I =671 */
(PID.TID 0000.0001)                 3.014528555318499E+05,      /* I =672 */
(PID.TID 0000.0001)                 2.899523122489403E+05,      /* I =673 */
(PID.TID 0000.0001)                 2.902718654756529E+05,      /* I =674 */
(PID.TID 0000.0001)                 2.912213227212650E+05,      /* I =675 */
(PID.TID 0000.0001)                 2.927469477866010E+05,      /* I =676 */
(PID.TID 0000.0001)                 2.947697367015565E+05,      /* I =677 */
(PID.TID 0000.0001)                 2.971899783337052E+05,      /* I =678 */
(PID.TID 0000.0001)                 2.998952659771185E+05,      /* I =679 */
(PID.TID 0000.0001)                 3.027679303727833E+05,      /* I =680 */
(PID.TID 0000.0001)                 3.056911758960931E+05,      /* I =681 */
(PID.TID 0000.0001)                 3.085537100134814E+05,      /* I =682 */
(PID.TID 0000.0001)                 3.112530061794861E+05,      /* I =683 */
(PID.TID 0000.0001)                 3.136975008108302E+05,      /* I =684 */
(PID.TID 0000.0001)                 3.158080427002144E+05,      /* I =685 */
(PID.TID 0000.0001)                 3.175188551173586E+05,      /* I =686 */
(PID.TID 0000.0001)                 3.187781900626006E+05,      /* I =687 */
(PID.TID 0000.0001)                 3.195487812384848E+05,      /* I =688 */
(PID.TID 0000.0001)                 3.198082246942282E+05,      /* I =689 */
(PID.TID 0000.0001)                 3.195487812384848E+05,      /* I =690 */
(PID.TID 0000.0001)                 3.187781900626006E+05,      /* I =691 */
(PID.TID 0000.0001)                 3.175188551173586E+05,      /* I =692 */
(PID.TID 0000.0001)                 3.158080427002144E+05,      /* I =693 */
(PID.TID 0000.0001)                 3.136975008108302E+05,      /* I =694 */
(PID.TID 0000.0001)                 3.112530061794861E+05,      /* I =695 */
(PID.TID 0000.0001)                 3.085537100134814E+05,      /* I =696 */
(PID.TID 0000.0001)                 3.056911758960931E+05,      /* I =697 */
(PID.TID 0000.0001)                 3.027679303727833E+05,      /* I =698 */
(PID.TID 0000.0001)                 2.998952659771185E+05,      /* I =699 */
(PID.TID 0000.0001)                 2.971899783337052E+05,      /* I =700 */
(PID.TID 0000.0001)                 2.947697367015565E+05,      /* I =701 */
(PID.TID 0000.0001)                 2.927469477866010E+05,      /* I =702 */
(PID.TID 0000.0001)                 2.912213227212650E+05,      /* I =703 */
(PID.TID 0000.0001)                 2.902718654756529E+05,      /* I =704 */
(PID.TID 0000.0001)                 2.598293319150326E+05,      /* I =705 */
(PID.TID 0000.0001)                 2.605247136571591E+05,      /* I =706 */
(PID.TID 0000.0001)                 2.625781987034077E+05,      /* I =707 */
(PID.TID 0000.0001)                 2.657864830834272E+05,      /* I =708 */
(PID.TID 0000.0001)                 2.698839526285321E+05,      /* I =709 */
(PID.TID 0000.0001)                 2.745812566278220E+05,      /* I =710 */
(PID.TID 0000.0001)                 2.796034826143155E+05,      /* I =711 */
(PID.TID 0000.0001)                 2.847102987256835E+05,      /* I =712 */
(PID.TID 0000.0001)                 2.897017600496954E+05,      /* I =713 */
(PID.TID 0000.0001)                 2.944159886434956E+05,      /* I =714 */
(PID.TID 0000.0001)                 2.987236876295224E+05,      /* I =715 */
(PID.TID 0000.0001)                 3.025223454914123E+05,      /* I =716 */
(PID.TID 0000.0001)                 3.057313676343125E+05,      /* I =717 */
(PID.TID 0000.0001)                 3.082884490394393E+05,      /* I =718 */
(PID.TID 0000.0001)                 3.101470823422900E+05,      /* I =719 */
(PID.TID 0000.0001)                 3.112749589313555E+05,      /* I =720 */
(PID.TID 0000.0001)                 3.116531025121516E+05,      /* I =721 */
(PID.TID 0000.0001)                 3.112749589313555E+05,      /* I =722 */
(PID.TID 0000.0001)                 3.101470823422900E+05,      /* I =723 */
(PID.TID 0000.0001)                 3.082884490394393E+05,      /* I =724 */
(PID.TID 0000.0001)                 3.057313676343125E+05,      /* I =725 */
(PID.TID 0000.0001)                 3.025223454914123E+05,      /* I =726 */
(PID.TID 0000.0001)                 2.987236876295224E+05,      /* I =727 */
(PID.TID 0000.0001)                 2.944159886434956E+05,      /* I =728 */
(PID.TID 0000.0001)                 2.897017600496954E+05,      /* I =729 */
(PID.TID 0000.0001)                 2.847102987256835E+05,      /* I =730 */
(PID.TID 0000.0001)                 2.796034826143155E+05,      /* I =731 */
(PID.TID 0000.0001)                 2.745812566278220E+05,      /* I =732 */
(PID.TID 0000.0001)                 2.698839526285321E+05,      /* I =733 */
(PID.TID 0000.0001)                 2.657864830834272E+05,      /* I =734 */
(PID.TID 0000.0001)                 2.625781987034077E+05,      /* I =735 */
(PID.TID 0000.0001)                 2.605247136571591E+05,      /* I =736 */
(PID.TID 0000.0001)                 2.042717761866506E+05,      /* I =737 */
(PID.TID 0000.0001)                 2.068350806004581E+05,      /* I =738 */
(PID.TID 0000.0001)                 2.138086927377143E+05,      /* I =739 */
(PID.TID 0000.0001)                 2.233078585447743E+05,      /* I =740 */
(PID.TID 0000.0001)                 2.337608097814075E+05,      /* I =741 */
(PID.TID 0000.0001)                 2.442130550248370E+05,      /* I =742 */
(PID.TID 0000.0001)                 2.541694919462758E+05,      /* I =743 */
(PID.TID 0000.0001)                 2.633885327540043E+05,      /* I =744 */
(PID.TID 0000.0001)                 2.717530548984243E+05,      /* I =745 */
(PID.TID 0000.0001)                 2.792039108711187E+05,      /* I =746 */
(PID.TID 0000.0001)                 2.857081239734438E+05,      /* I =747 */
(PID.TID 0000.0001)                 2.912443307196133E+05,      /* I =748 */
(PID.TID 0000.0001)                 2.957965112547295E+05,      /* I =749 */
(PID.TID 0000.0001)                 2.993516374039656E+05,      /* I =750 */
(PID.TID 0000.0001)                 3.018991112427414E+05,      /* I =751 */
(PID.TID 0000.0001)                 3.034309408025300E+05,      /* I =752 */
(PID.TID 0000.0001)                 3.039422096857757E+05,      /* I =753 */
(PID.TID 0000.0001)                 3.034309408025300E+05,      /* I =754 */
(PID.TID 0000.0001)                 3.018991112427414E+05,      /* I =755 */
(PID.TID 0000.0001)                 2.993516374039656E+05,      /* I =756 */
(PID.TID 0000.0001)                 2.957965112547295E+05,      /* I =757 */
(PID.TID 0000.0001)                 2.912443307196133E+05,      /* I =758 */
(PID.TID 0000.0001)                 2.857081239734438E+05,      /* I =759 */
(PID.TID 0000.0001)                 2.792039108711187E+05,      /* I =760 */
(PID.TID 0000.0001)                 2.717530548984243E+05,      /* I =761 */
(PID.TID 0000.0001)                 2.633885327540043E+05,      /* I =762 */
(PID.TID 0000.0001)                 2.541694919462758E+05,      /* I =763 */
(PID.TID 0000.0001)                 2.442130550248370E+05,      /* I =764 */
(PID.TID 0000.0001)                 2.337608097814075E+05,      /* I =765 */
(PID.TID 0000.0001)                 2.233078585447743E+05,      /* I =766 */
(PID.TID 0000.0001)                 2.138086927377143E+05,      /* I =767 */
(PID.TID 0000.0001)                 2.068350806004581E+05,      /* I =768 */
(PID.TID 0000.0001)                 1.114203141013064E+05,      /* I =769 */
(PID.TID 0000.0001)                 1.391343389937106E+05,      /* I =770 */
(PID.TID 0000.0001)                 1.709574999026266E+05,      /* I =771 */
(PID.TID 0000.0001)                 1.946503699269892E+05,      /* I =772 */
(PID.TID 0000.0001)                 2.135964483342134E+05,      /* I =773 */
(PID.TID 0000.0001)                 2.294195678257306E+05,      /* I =774 */
(PID.TID 0000.0001)                 2.429464709770498E+05,      /* I =775 */
(PID.TID 0000.0001)                 2.546408290696998E+05,      /* I =776 */
(PID.TID 0000.0001)                 2.647791839299727E+05,      /* I =777 */
(PID.TID 0000.0001)                 2.735321911346108E+05,      /* I =778 */
(PID.TID 0000.0001)                 2.810065951609633E+05,      /* I =779 */
(PID.TID 0000.0001)                 2.872689479506990E+05,      /* I =780 */
(PID.TID 0000.0001)                 2.923599955312932E+05,      /* I =781 */
(PID.TID 0000.0001)                 2.963038832565530E+05,      /* I =782 */
(PID.TID 0000.0001)                 2.991142470004740E+05,      /* I =783 */
(PID.TID 0000.0001)                 3.007982711627968E+05,      /* I =784 */
(PID.TID 0000.0001)                 3.013593857228136E+05,      /* I =785 */
(PID.TID 0000.0001)                 3.007982711627968E+05,      /* I =786 */
(PID.TID 0000.0001)                 2.991142470004740E+05,      /* I =787 */
(PID.TID 0000.0001)                 2.963038832565530E+05,      /* I =788 */
(PID.TID 0000.0001)                 2.923599955312932E+05,      /* I =789 */
(PID.TID 0000.0001)                 2.872689479506990E+05,      /* I =790 */
(PID.TID 0000.0001)                 2.810065951609633E+05,      /* I =791 */
(PID.TID 0000.0001)                 2.735321911346108E+05,      /* I =792 */
(PID.TID 0000.0001)                 2.647791839299727E+05,      /* I =793 */
(PID.TID 0000.0001)                 2.546408290696998E+05,      /* I =794 */
(PID.TID 0000.0001)                 2.429464709770498E+05,      /* I =795 */
(PID.TID 0000.0001)                 2.294195678257306E+05,      /* I =796 */
(PID.TID 0000.0001)                 2.135964483342134E+05,      /* I =797 */
(PID.TID 0000.0001)                 1.946503699269892E+05,      /* I =798 */
(PID.TID 0000.0001)                 1.709574999026266E+05,      /* I =799 */
(PID.TID 0000.0001)                 1.391343389937106E+05,      /* I =800 */
(PID.TID 0000.0001)                 2.216367828252819E+05,      /* I =801 */
(PID.TID 0000.0001)                 2.233318358853647E+05,      /* I =802 */
(PID.TID 0000.0001)                 2.281334130974475E+05,      /* I =803 */
(PID.TID 0000.0001)                 2.350890794471406E+05,      /* I =804 */
(PID.TID 0000.0001)                 2.432236510574240E+05,      /* I =805 */
(PID.TID 0000.0001)                 2.517777164226335E+05,      /* I =806 */
(PID.TID 0000.0001)                 2.602456285594502E+05,      /* I =807 */
(PID.TID 0000.0001)                 2.683133946112084E+05,      /* I =808 */
(PID.TID 0000.0001)                 2.757889673278915E+05,      /* I =809 */
(PID.TID 0000.0001)                 2.825523346347177E+05,      /* I =810 */
(PID.TID 0000.0001)                 2.885249994841755E+05,      /* I =811 */
(PID.TID 0000.0001)                 2.936526595780224E+05,      /* I =812 */
(PID.TID 0000.0001)                 2.978958309396700E+05,      /* I =813 */
(PID.TID 0000.0001)                 3.012249990222233E+05,      /* I =814 */
(PID.TID 0000.0001)                 3.036182638196822E+05,      /* I =815 */
(PID.TID 0000.0001)                 3.050603049789793E+05,      /* I =816 */
(PID.TID 0000.0001)                 3.055420860601236E+05,      /* I =817 */
(PID.TID 0000.0001)                 3.050603049789793E+05,      /* I =818 */
(PID.TID 0000.0001)                 3.036182638196822E+05,      /* I =819 */
(PID.TID 0000.0001)                 3.012249990222233E+05,      /* I =820 */
(PID.TID 0000.0001)                 2.978958309396700E+05,      /* I =821 */
(PID.TID 0000.0001)                 2.936526595780224E+05,      /* I =822 */
(PID.TID 0000.0001)                 2.885249994841755E+05,      /* I =823 */
(PID.TID 0000.0001)                 2.825523346347177E+05,      /* I =824 */
(PID.TID 0000.0001)                 2.757889673278915E+05,      /* I =825 */
(PID.TID 0000.0001)                 2.683133946112084E+05,      /* I =826 */
(PID.TID 0000.0001)                 2.602456285594502E+05,      /* I =827 */
(PID.TID 0000.0001)                 2.517777164226335E+05,      /* I =828 */
(PID.TID 0000.0001)                 2.432236510574240E+05,      /* I =829 */
(PID.TID 0000.0001)                 2.350890794471406E+05,      /* I =830 */
(PID.TID 0000.0001)                 2.281334130974475E+05,      /* I =831 */
(PID.TID 0000.0001)                 2.233318358853647E+05,      /* I =832 */
(PID.TID 0000.0001)                 2.692787333338535E+05,      /* I =833 */
(PID.TID 0000.0001)                 2.698316926768863E+05,      /* I =834 */
(PID.TID 0000.0001)                 2.714713968328591E+05,      /* I =835 */
(PID.TID 0000.0001)                 2.740607206150700E+05,      /* I =836 */
(PID.TID 0000.0001)                 2.774139821809750E+05,      /* I =837 */
(PID.TID 0000.0001)                 2.813178027434184E+05,      /* I =838 */
(PID.TID 0000.0001)                 2.855567371326078E+05,      /* I =839 */
(PID.TID 0000.0001)                 2.899302743931477E+05,      /* I =840 */
(PID.TID 0000.0001)                 2.942613213681001E+05,      /* I =841 */
(PID.TID 0000.0001)                 2.983985950890736E+05,      /* I =842 */
(PID.TID 0000.0001)                 3.022156296499031E+05,      /* I =843 */
(PID.TID 0000.0001)                 3.056084178247824E+05,      /* I =844 */
(PID.TID 0000.0001)                 3.084928732605239E+05,      /* I =845 */
(PID.TID 0000.0001)                 3.108026640008289E+05,      /* I =846 */
(PID.TID 0000.0001)                 3.124875845707635E+05,      /* I =847 */
(PID.TID 0000.0001)                 3.135124429988134E+05,      /* I =848 */
(PID.TID 0000.0001)                 3.138564503561421E+05,      /* I =849 */
(PID.TID 0000.0001)                 3.135124429988134E+05,      /* I =850 */
(PID.TID 0000.0001)                 3.124875845707635E+05,      /* I =851 */
(PID.TID 0000.0001)                 3.108026640008289E+05,      /* I =852 */
(PID.TID 0000.0001)                 3.084928732605239E+05,      /* I =853 */
(PID.TID 0000.0001)                 3.056084178247824E+05,      /* I =854 */
(PID.TID 0000.0001)                 3.022156296499031E+05,      /* I =855 */
(PID.TID 0000.0001)                 2.983985950890736E+05,      /* I =856 */
(PID.TID 0000.0001)                 2.942613213681001E+05,      /* I =857 */
(PID.TID 0000.0001)                 2.899302743931477E+05,      /* I =858 */
(PID.TID 0000.0001)                 2.855567371326078E+05,      /* I =859 */
(PID.TID 0000.0001)                 2.813178027434184E+05,      /* I =860 */
(PID.TID 0000.0001)                 2.774139821809750E+05,      /* I =861 */
(PID.TID 0000.0001)                 2.740607206150700E+05,      /* I =862 */
(PID.TID 0000.0001)                 2.714713968328591E+05,      /* I =863 */
(PID.TID 0000.0001)                 2.698316926768863E+05,      /* I =864 */
(PID.TID 0000.0001)                 2.944741346384699E+05,      /* I =865 */
(PID.TID 0000.0001)                 2.947534032044371E+05,      /* I =866 */
(PID.TID 0000.0001)                 2.955821683657630E+05,      /* I =867 */
(PID.TID 0000.0001)                 2.969179832044766E+05,      /* I =868 */
(PID.TID 0000.0001)                 2.986967441200144E+05,      /* I =869 */
(PID.TID 0000.0001)                 3.008360640320133E+05,      /* I =870 */
(PID.TID 0000.0001)                 3.032410228118516E+05,      /* I =871 */
(PID.TID 0000.0001)                 3.058098685576374E+05,      /* I =872 */
(PID.TID 0000.0001)                 3.084391345892176E+05,      /* I =873 */
(PID.TID 0000.0001)                 3.110279121390598E+05,      /* I =874 */
(PID.TID 0000.0001)                 3.134812420732829E+05,      /* I =875 */
(PID.TID 0000.0001)                 3.157127231496777E+05,      /* I =876 */
(PID.TID 0000.0001)                 3.176464858965941E+05,      /* I =877 */
(PID.TID 0000.0001)                 3.192186772490244E+05,      /* I =878 */
(PID.TID 0000.0001)                 3.203785701445474E+05,      /* I =879 */
(PID.TID 0000.0001)                 3.210893751531767E+05,      /* I =880 */
(PID.TID 0000.0001)                 3.213288727261454E+05,      /* I =881 */
(PID.TID 0000.0001)                 3.210893751531767E+05,      /* I =882 */
(PID.TID 0000.0001)                 3.203785701445474E+05,      /* I =883 */
(PID.TID 0000.0001)                 3.192186772490244E+05,      /* I =884 */
(PID.TID 0000.0001)                 3.176464858965941E+05,      /* I =885 */
(PID.TID 0000.0001)                 3.157127231496777E+05,      /* I =886 */
(PID.TID 0000.0001)                 3.134812420732829E+05,      /* I =887 */
(PID.TID 0000.0001)                 3.110279121390598E+05,      /* I =888 */
(PID.TID 0000.0001)                 3.084391345892176E+05,      /* I =889 */
(PID.TID 0000.0001)                 3.058098685576374E+05,      /* I =890 */
(PID.TID 0000.0001)                 3.032410228118516E+05,      /* I =891 */
(PID.TID 0000.0001)                 3.008360640320133E+05,      /* I =892 */
(PID.TID 0000.0001)                 2.986967441200144E+05,      /* I =893 */
(PID.TID 0000.0001)                 2.969179832044766E+05,      /* I =894 */
(PID.TID 0000.0001)                 2.955821683657630E+05,      /* I =895 */
(PID.TID 0000.0001)                 2.947534032044371E+05,      /* I =896 */
(PID.TID 0000.0001)                 3.012281885409289E+05,      /* I =897 */
(PID.TID 0000.0001)                 3.014528555318499E+05,      /* I =898 */
(PID.TID 0000.0001)                 3.021172674809921E+05,      /* I =899 */
(PID.TID 0000.0001)                 3.031928954490276E+05,      /* I =900 */
(PID.TID 0000.0001)                 3.046340673197290E+05,      /* I =901 */
(PID.TID 0000.0001)                 3.063804565966232E+05,      /* I =902 */
(PID.TID 0000.0001)                 3.083602390447406E+05,      /* I =903 */
(PID.TID 0000.0001)                 3.104936054761689E+05,      /* I =904 */
(PID.TID 0000.0001)                 3.126963716684348E+05,      /* I =905 */
(PID.TID 0000.0001)                 3.148834765567928E+05,      /* I =906 */
(PID.TID 0000.0001)                 3.169722218029966E+05,      /* I =907 */
(PID.TID 0000.0001)                 3.188851642086189E+05,      /* I =908 */
(PID.TID 0000.0001)                 3.205526180491640E+05,      /* I =909 */
(PID.TID 0000.0001)                 3.219147544224371E+05,      /* I =910 */
(PID.TID 0000.0001)                 3.229233008154936E+05,      /* I =911 */
(PID.TID 0000.0001)                 3.235428501703109E+05,      /* I =912 */
(PID.TID 0000.0001)                 3.237518583690030E+05,      /* I =913 */
(PID.TID 0000.0001)                 3.235428501703109E+05,      /* I =914 */
(PID.TID 0000.0001)                 3.229233008154936E+05,      /* I =915 */
(PID.TID 0000.0001)                 3.219147544224371E+05,      /* I =916 */
(PID.TID 0000.0001)                 3.205526180491640E+05,      /* I =917 */
(PID.TID 0000.0001)                 3.188851642086189E+05,      /* I =918 */
(PID.TID 0000.0001)                 3.169722218029966E+05,      /* I =919 */
(PID.TID 0000.0001)                 3.148834765567928E+05,      /* I =920 */
(PID.TID 0000.0001)                 3.126963716684348E+05,      /* I =921 */
(PID.TID 0000.0001)                 3.104936054761689E+05,      /* I =922 */
(PID.TID 0000.0001)                 3.083602390447406E+05,      /* I =923 */
(PID.TID 0000.0001)                 3.063804565966232E+05,      /* I =924 */
(PID.TID 0000.0001)                 3.046340673197290E+05,      /* I =925 */
(PID.TID 0000.0001)                 3.031928954490276E+05,      /* I =926 */
(PID.TID 0000.0001)                 3.021172674809921E+05,      /* I =927 */
(PID.TID 0000.0001)                 3.014528555318499E+05,      /* I =928 */
(PID.TID 0000.0001)                 2.899523122489403E+05,      /* I =929 */
(PID.TID 0000.0001)                 2.902718654756529E+05,      /* I =930 */
(PID.TID 0000.0001)                 2.912213227212650E+05,      /* I =931 */
(PID.TID 0000.0001)                 2.927469477866010E+05,      /* I =932 */
(PID.TID 0000.0001)                 2.947697367015565E+05,      /* I =933 */
(PID.TID 0000.0001)                 2.971899783337052E+05,      /* I =934 */
(PID.TID 0000.0001)                 2.998952659771185E+05,      /* I =935 */
(PID.TID 0000.0001)                 3.027679303727833E+05,      /* I =936 */
(PID.TID 0000.0001)                 3.056911758960931E+05,      /* I =937 */
(PID.TID 0000.0001)                 3.085537100134814E+05,      /* I =938 */
(PID.TID 0000.0001)                 3.112530061794861E+05,      /* I =939 */
(PID.TID 0000.0001)                 3.136975008108302E+05,      /* I =940 */
(PID.TID 0000.0001)                 3.158080427002144E+05,      /* I =941 */
(PID.TID 0000.0001)                 3.175188551173586E+05,      /* I =942 */
(PID.TID 0000.0001)                 3.187781900626006E+05,      /* I =943 */
(PID.TID 0000.0001)                 3.195487812384848E+05,      /* I =944 */
(PID.TID 0000.0001)                 3.198082246942282E+05,      /* I =945 */
(PID.TID 0000.0001)                 3.195487812384848E+05,      /* I =946 */
(PID.TID 0000.0001)                 3.187781900626006E+05,      /* I =947 */
(PID.TID 0000.0001)                 3.175188551173586E+05,      /* I =948 */
(PID.TID 0000.0001)                 3.158080427002144E+05,      /* I =949 */
(PID.TID 0000.0001)                 3.136975008108302E+05,      /* I =950 */
(PID.TID 0000.0001)                 3.112530061794861E+05,      /* I =951 */
(PID.TID 0000.0001)                 3.085537100134814E+05,      /* I =952 */
(PID.TID 0000.0001)                 3.056911758960931E+05,      /* I =953 */
(PID.TID 0000.0001)                 3.027679303727833E+05,      /* I =954 */
(PID.TID 0000.0001)                 2.998952659771185E+05,      /* I =955 */
(PID.TID 0000.0001)                 2.971899783337052E+05,      /* I =956 */
(PID.TID 0000.0001)                 2.947697367015565E+05,      /* I =957 */
(PID.TID 0000.0001)                 2.927469477866010E+05,      /* I =958 */
(PID.TID 0000.0001)                 2.912213227212650E+05,      /* I =959 */
(PID.TID 0000.0001)                 2.902718654756529E+05,      /* I =960 */
(PID.TID 0000.0001)                 2.598293319150326E+05,      /* I =961 */
(PID.TID 0000.0001)                 2.605247136571591E+05,      /* I =962 */
(PID.TID 0000.0001)                 2.625781987034077E+05,      /* I =963 */
(PID.TID 0000.0001)                 2.657864830834272E+05,      /* I =964 */
(PID.TID 0000.0001)                 2.698839526285321E+05,      /* I =965 */
(PID.TID 0000.0001)                 2.745812566278220E+05,      /* I =966 */
(PID.TID 0000.0001)                 2.796034826143155E+05,      /* I =967 */
(PID.TID 0000.0001)                 2.847102987256835E+05,      /* I =968 */
(PID.TID 0000.0001)                 2.897017600496954E+05,      /* I =969 */
(PID.TID 0000.0001)                 2.944159886434956E+05,      /* I =970 */
(PID.TID 0000.0001)                 2.987236876295224E+05,      /* I =971 */
(PID.TID 0000.0001)                 3.025223454914123E+05,      /* I =972 */
(PID.TID 0000.0001)                 3.057313676343125E+05,      /* I =973 */
(PID.TID 0000.0001)                 3.082884490394393E+05,      /* I =974 */
(PID.TID 0000.0001)                 3.101470823422900E+05,      /* I =975 */
(PID.TID 0000.0001)                 3.112749589313555E+05,      /* I =976 */
(PID.TID 0000.0001)                 3.116531025121516E+05,      /* I =977 */
(PID.TID 0000.0001)                 3.112749589313555E+05,      /* I =978 */
(PID.TID 0000.0001)                 3.101470823422900E+05,      /* I =979 */
(PID.TID 0000.0001)                 3.082884490394393E+05,      /* I =980 */
(PID.TID 0000.0001)                 3.057313676343125E+05,      /* I =981 */
(PID.TID 0000.0001)                 3.025223454914123E+05,      /* I =982 */
(PID.TID 0000.0001)                 2.987236876295224E+05,      /* I =983 */
(PID.TID 0000.0001)                 2.944159886434956E+05,      /* I =984 */
(PID.TID 0000.0001)                 2.897017600496954E+05,      /* I =985 */
(PID.TID 0000.0001)                 2.847102987256835E+05,      /* I =986 */
(PID.TID 0000.0001)                 2.796034826143155E+05,      /* I =987 */
(PID.TID 0000.0001)                 2.745812566278220E+05,      /* I =988 */
(PID.TID 0000.0001)                 2.698839526285321E+05,      /* I =989 */
(PID.TID 0000.0001)                 2.657864830834272E+05,      /* I =990 */
(PID.TID 0000.0001)                 2.625781987034077E+05,      /* I =991 */
(PID.TID 0000.0001)                 2.605247136571591E+05,      /* I =992 */
(PID.TID 0000.0001)                 2.042717761866506E+05,      /* I =993 */
(PID.TID 0000.0001)                 2.068350806004581E+05,      /* I =994 */
(PID.TID 0000.0001)                 2.138086927377143E+05,      /* I =995 */
(PID.TID 0000.0001)                 2.233078585447743E+05,      /* I =996 */
(PID.TID 0000.0001)                 2.337608097814075E+05,      /* I =997 */
(PID.TID 0000.0001)                 2.442130550248370E+05,      /* I =998 */
(PID.TID 0000.0001)                 2.541694919462758E+05,      /* I =999 */
(PID.TID 0000.0001)                 2.633885327540043E+05,      /* I =*** */
(PID.TID 0000.0001)                 2.717530548984243E+05,      /* I =*** */
(PID.TID 0000.0001)                 2.792039108711187E+05,      /* I =*** */
(PID.TID 0000.0001)                 2.857081239734438E+05,      /* I =*** */
(PID.TID 0000.0001)                 2.912443307196133E+05,      /* I =*** */
(PID.TID 0000.0001)                 2.957965112547295E+05,      /* I =*** */
(PID.TID 0000.0001)                 2.993516374039656E+05,      /* I =*** */
(PID.TID 0000.0001)                 3.018991112427414E+05,      /* I =*** */
(PID.TID 0000.0001)                 3.034309408025300E+05,      /* I =*** */
(PID.TID 0000.0001)                 3.039422096857757E+05,      /* I =*** */
(PID.TID 0000.0001)                 3.034309408025300E+05,      /* I =*** */
(PID.TID 0000.0001)                 3.018991112427414E+05,      /* I =*** */
(PID.TID 0000.0001)                 2.993516374039656E+05,      /* I =*** */
(PID.TID 0000.0001)                 2.957965112547295E+05,      /* I =*** */
(PID.TID 0000.0001)                 2.912443307196133E+05,      /* I =*** */
(PID.TID 0000.0001)                 2.857081239734438E+05,      /* I =*** */
(PID.TID 0000.0001)                 2.792039108711187E+05,      /* I =*** */
(PID.TID 0000.0001)                 2.717530548984243E+05,      /* I =*** */
(PID.TID 0000.0001)                 2.633885327540043E+05,      /* I =*** */
(PID.TID 0000.0001)                 2.541694919462758E+05,      /* I =*** */
(PID.TID 0000.0001)                 2.442130550248370E+05,      /* I =*** */
(PID.TID 0000.0001)                 2.337608097814075E+05,      /* I =*** */
(PID.TID 0000.0001)                 2.233078585447743E+05,      /* I =*** */
(PID.TID 0000.0001)                 2.138086927377143E+05,      /* I =*** */
(PID.TID 0000.0001)                 2.068350806004581E+05,      /* I =*** */
(PID.TID 0000.0001)                 1.114203141013064E+05,      /* I =*** */
(PID.TID 0000.0001)                 1.391343389937106E+05,      /* I =*** */
(PID.TID 0000.0001)                 1.709574999026266E+05,      /* I =*** */
(PID.TID 0000.0001)                 1.946503699269892E+05,      /* I =*** */
(PID.TID 0000.0001)                 2.135964483342134E+05,      /* I =*** */
(PID.TID 0000.0001)                 2.294195678257306E+05,      /* I =*** */
(PID.TID 0000.0001)                 2.429464709770498E+05,      /* I =*** */
(PID.TID 0000.0001)                 2.546408290696998E+05,      /* I =*** */
(PID.TID 0000.0001)                 2.647791839299727E+05,      /* I =*** */
(PID.TID 0000.0001)                 2.735321911346108E+05,      /* I =*** */
(PID.TID 0000.0001)                 2.810065951609633E+05,      /* I =*** */
(PID.TID 0000.0001)                 2.872689479506990E+05,      /* I =*** */
(PID.TID 0000.0001)                 2.923599955312932E+05,      /* I =*** */
(PID.TID 0000.0001)                 2.963038832565530E+05,      /* I =*** */
(PID.TID 0000.0001)                 2.991142470004740E+05,      /* I =*** */
(PID.TID 0000.0001)                 3.007982711627968E+05,      /* I =*** */
(PID.TID 0000.0001)                 3.013593857228136E+05,      /* I =*** */
(PID.TID 0000.0001)                 3.007982711627968E+05,      /* I =*** */
(PID.TID 0000.0001)                 2.991142470004740E+05,      /* I =*** */
(PID.TID 0000.0001)                 2.963038832565530E+05,      /* I =*** */
(PID.TID 0000.0001)                 2.923599955312932E+05,      /* I =*** */
(PID.TID 0000.0001)                 2.872689479506990E+05,      /* I =*** */
(PID.TID 0000.0001)                 2.810065951609633E+05,      /* I =*** */
(PID.TID 0000.0001)                 2.735321911346108E+05,      /* I =*** */
(PID.TID 0000.0001)                 2.647791839299727E+05,      /* I =*** */
(PID.TID 0000.0001)                 2.546408290696998E+05,      /* I =*** */
(PID.TID 0000.0001)                 2.429464709770498E+05,      /* I =*** */
(PID.TID 0000.0001)                 2.294195678257306E+05,      /* I =*** */
(PID.TID 0000.0001)                 2.135964483342134E+05,      /* I =*** */
(PID.TID 0000.0001)                 1.946503699269892E+05,      /* I =*** */
(PID.TID 0000.0001)                 1.709574999026266E+05,      /* I =*** */
(PID.TID 0000.0001)                 1.391343389937106E+05,      /* I =*** */
(PID.TID 0000.0001)                 2.216367828252819E+05,      /* I =*** */
(PID.TID 0000.0001)                 2.233318358853647E+05,      /* I =*** */
(PID.TID 0000.0001)                 2.281334130974475E+05,      /* I =*** */
(PID.TID 0000.0001)                 2.350890794471406E+05,      /* I =*** */
(PID.TID 0000.0001)                 2.432236510574240E+05,      /* I =*** */
(PID.TID 0000.0001)                 2.517777164226335E+05,      /* I =*** */
(PID.TID 0000.0001)                 2.602456285594502E+05,      /* I =*** */
(PID.TID 0000.0001)                 2.683133946112084E+05,      /* I =*** */
(PID.TID 0000.0001)                 2.757889673278915E+05,      /* I =*** */
(PID.TID 0000.0001)                 2.825523346347177E+05,      /* I =*** */
(PID.TID 0000.0001)                 2.885249994841755E+05,      /* I =*** */
(PID.TID 0000.0001)                 2.936526595780224E+05,      /* I =*** */
(PID.TID 0000.0001)                 2.978958309396700E+05,      /* I =*** */
(PID.TID 0000.0001)                 3.012249990222233E+05,      /* I =*** */
(PID.TID 0000.0001)                 3.036182638196822E+05,      /* I =*** */
(PID.TID 0000.0001)                 3.050603049789793E+05,      /* I =*** */
(PID.TID 0000.0001)                 3.055420860601236E+05,      /* I =*** */
(PID.TID 0000.0001)                 3.050603049789793E+05,      /* I =*** */
(PID.TID 0000.0001)                 3.036182638196822E+05,      /* I =*** */
(PID.TID 0000.0001)                 3.012249990222233E+05,      /* I =*** */
(PID.TID 0000.0001)                 2.978958309396700E+05,      /* I =*** */
(PID.TID 0000.0001)                 2.936526595780224E+05,      /* I =*** */
(PID.TID 0000.0001)                 2.885249994841755E+05,      /* I =*** */
(PID.TID 0000.0001)                 2.825523346347177E+05,      /* I =*** */
(PID.TID 0000.0001)                 2.757889673278915E+05,      /* I =*** */
(PID.TID 0000.0001)                 2.683133946112084E+05,      /* I =*** */
(PID.TID 0000.0001)                 2.602456285594502E+05,      /* I =*** */
(PID.TID 0000.0001)                 2.517777164226335E+05,      /* I =*** */
(PID.TID 0000.0001)                 2.432236510574240E+05,      /* I =*** */
(PID.TID 0000.0001)                 2.350890794471406E+05,      /* I =*** */
(PID.TID 0000.0001)                 2.281334130974475E+05,      /* I =*** */
(PID.TID 0000.0001)                 2.233318358853647E+05,      /* I =*** */
(PID.TID 0000.0001)                 2.692787333338535E+05,      /* I =*** */
(PID.TID 0000.0001)                 2.698316926768863E+05,      /* I =*** */
(PID.TID 0000.0001)                 2.714713968328591E+05,      /* I =*** */
(PID.TID 0000.0001)                 2.740607206150700E+05,      /* I =*** */
(PID.TID 0000.0001)                 2.774139821809750E+05,      /* I =*** */
(PID.TID 0000.0001)                 2.813178027434184E+05,      /* I =*** */
(PID.TID 0000.0001)                 2.855567371326078E+05,      /* I =*** */
(PID.TID 0000.0001)                 2.899302743931477E+05,      /* I =*** */
(PID.TID 0000.0001)                 2.942613213681001E+05,      /* I =*** */
(PID.TID 0000.0001)                 2.983985950890736E+05,      /* I =*** */
(PID.TID 0000.0001)                 3.022156296499031E+05,      /* I =*** */
(PID.TID 0000.0001)                 3.056084178247824E+05,      /* I =*** */
(PID.TID 0000.0001)                 3.084928732605239E+05,      /* I =*** */
(PID.TID 0000.0001)                 3.108026640008289E+05,      /* I =*** */
(PID.TID 0000.0001)                 3.124875845707635E+05,      /* I =*** */
(PID.TID 0000.0001)                 3.135124429988134E+05,      /* I =*** */
(PID.TID 0000.0001)                 3.138564503561421E+05,      /* I =*** */
(PID.TID 0000.0001)                 3.135124429988134E+05,      /* I =*** */
(PID.TID 0000.0001)                 3.124875845707635E+05,      /* I =*** */
(PID.TID 0000.0001)                 3.108026640008289E+05,      /* I =*** */
(PID.TID 0000.0001)                 3.084928732605239E+05,      /* I =*** */
(PID.TID 0000.0001)                 3.056084178247824E+05,      /* I =*** */
(PID.TID 0000.0001)                 3.022156296499031E+05,      /* I =*** */
(PID.TID 0000.0001)                 2.983985950890736E+05,      /* I =*** */
(PID.TID 0000.0001)                 2.942613213681001E+05,      /* I =*** */
(PID.TID 0000.0001)                 2.899302743931477E+05,      /* I =*** */
(PID.TID 0000.0001)                 2.855567371326078E+05,      /* I =*** */
(PID.TID 0000.0001)                 2.813178027434184E+05,      /* I =*** */
(PID.TID 0000.0001)                 2.774139821809750E+05,      /* I =*** */
(PID.TID 0000.0001)                 2.740607206150700E+05,      /* I =*** */
(PID.TID 0000.0001)                 2.714713968328591E+05,      /* I =*** */
(PID.TID 0000.0001)                 2.698316926768863E+05,      /* I =*** */
(PID.TID 0000.0001)                 2.944741346384699E+05,      /* I =*** */
(PID.TID 0000.0001)                 2.947534032044371E+05,      /* I =*** */
(PID.TID 0000.0001)                 2.955821683657630E+05,      /* I =*** */
(PID.TID 0000.0001)                 2.969179832044766E+05,      /* I =*** */
(PID.TID 0000.0001)                 2.986967441200144E+05,      /* I =*** */
(PID.TID 0000.0001)                 3.008360640320133E+05,      /* I =*** */
(PID.TID 0000.0001)                 3.032410228118516E+05,      /* I =*** */
(PID.TID 0000.0001)                 3.058098685576374E+05,      /* I =*** */
(PID.TID 0000.0001)                 3.084391345892176E+05,      /* I =*** */
(PID.TID 0000.0001)                 3.110279121390598E+05,      /* I =*** */
(PID.TID 0000.0001)                 3.134812420732829E+05,      /* I =*** */
(PID.TID 0000.0001)                 3.157127231496777E+05,      /* I =*** */
(PID.TID 0000.0001)                 3.176464858965941E+05,      /* I =*** */
(PID.TID 0000.0001)                 3.192186772490244E+05,      /* I =*** */
(PID.TID 0000.0001)                 3.203785701445474E+05,      /* I =*** */
(PID.TID 0000.0001)                 3.210893751531767E+05,      /* I =*** */
(PID.TID 0000.0001)                 3.213288727261454E+05,      /* I =*** */
(PID.TID 0000.0001)                 3.210893751531767E+05,      /* I =*** */
(PID.TID 0000.0001)                 3.203785701445474E+05,      /* I =*** */
(PID.TID 0000.0001)                 3.192186772490244E+05,      /* I =*** */
(PID.TID 0000.0001)                 3.176464858965941E+05,      /* I =*** */
(PID.TID 0000.0001)                 3.157127231496777E+05,      /* I =*** */
(PID.TID 0000.0001)                 3.134812420732829E+05,      /* I =*** */
(PID.TID 0000.0001)                 3.110279121390598E+05,      /* I =*** */
(PID.TID 0000.0001)                 3.084391345892176E+05,      /* I =*** */
(PID.TID 0000.0001)                 3.058098685576374E+05,      /* I =*** */
(PID.TID 0000.0001)                 3.032410228118516E+05,      /* I =*** */
(PID.TID 0000.0001)                 3.008360640320133E+05,      /* I =*** */
(PID.TID 0000.0001)                 2.986967441200144E+05,      /* I =*** */
(PID.TID 0000.0001)                 2.969179832044766E+05,      /* I =*** */
(PID.TID 0000.0001)                 2.955821683657630E+05,      /* I =*** */
(PID.TID 0000.0001)                 2.947534032044371E+05,      /* I =*** */
(PID.TID 0000.0001)                 3.012281885409289E+05,      /* I =*** */
(PID.TID 0000.0001)                 3.014528555318499E+05,      /* I =*** */
(PID.TID 0000.0001)                 3.021172674809921E+05,      /* I =*** */
(PID.TID 0000.0001)                 3.031928954490276E+05,      /* I =*** */
(PID.TID 0000.0001)                 3.046340673197290E+05,      /* I =*** */
(PID.TID 0000.0001)                 3.063804565966232E+05,      /* I =*** */
(PID.TID 0000.0001)                 3.083602390447406E+05,      /* I =*** */
(PID.TID 0000.0001)                 3.104936054761689E+05,      /* I =*** */
(PID.TID 0000.0001)                 3.126963716684348E+05,      /* I =*** */
(PID.TID 0000.0001)                 3.148834765567928E+05,      /* I =*** */
(PID.TID 0000.0001)                 3.169722218029966E+05,      /* I =*** */
(PID.TID 0000.0001)                 3.188851642086189E+05,      /* I =*** */
(PID.TID 0000.0001)                 3.205526180491640E+05,      /* I =*** */
(PID.TID 0000.0001)                 3.219147544224371E+05,      /* I =*** */
(PID.TID 0000.0001)                 3.229233008154936E+05,      /* I =*** */
(PID.TID 0000.0001)                 3.235428501703109E+05,      /* I =*** */
(PID.TID 0000.0001)                 3.237518583690030E+05,      /* I =*** */
(PID.TID 0000.0001)                 3.235428501703109E+05,      /* I =*** */
(PID.TID 0000.0001)                 3.229233008154936E+05,      /* I =*** */
(PID.TID 0000.0001)                 3.219147544224371E+05,      /* I =*** */
(PID.TID 0000.0001)                 3.205526180491640E+05,      /* I =*** */
(PID.TID 0000.0001)                 3.188851642086189E+05,      /* I =*** */
(PID.TID 0000.0001)                 3.169722218029966E+05,      /* I =*** */
(PID.TID 0000.0001)                 3.148834765567928E+05,      /* I =*** */
(PID.TID 0000.0001)                 3.126963716684348E+05,      /* I =*** */
(PID.TID 0000.0001)                 3.104936054761689E+05,      /* I =*** */
(PID.TID 0000.0001)                 3.083602390447406E+05,      /* I =*** */
(PID.TID 0000.0001)                 3.063804565966232E+05,      /* I =*** */
(PID.TID 0000.0001)                 3.046340673197290E+05,      /* I =*** */
(PID.TID 0000.0001)                 3.031928954490276E+05,      /* I =*** */
(PID.TID 0000.0001)                 3.021172674809921E+05,      /* I =*** */
(PID.TID 0000.0001)                 3.014528555318499E+05,      /* I =*** */
(PID.TID 0000.0001)                 2.899523122489403E+05,      /* I =*** */
(PID.TID 0000.0001)                 2.902718654756529E+05,      /* I =*** */
(PID.TID 0000.0001)                 2.912213227212650E+05,      /* I =*** */
(PID.TID 0000.0001)                 2.927469477866010E+05,      /* I =*** */
(PID.TID 0000.0001)                 2.947697367015565E+05,      /* I =*** */
(PID.TID 0000.0001)                 2.971899783337052E+05,      /* I =*** */
(PID.TID 0000.0001)                 2.998952659771185E+05,      /* I =*** */
(PID.TID 0000.0001)                 3.027679303727833E+05,      /* I =*** */
(PID.TID 0000.0001)                 3.056911758960931E+05,      /* I =*** */
(PID.TID 0000.0001)                 3.085537100134814E+05,      /* I =*** */
(PID.TID 0000.0001)                 3.112530061794861E+05,      /* I =*** */
(PID.TID 0000.0001)                 3.136975008108302E+05,      /* I =*** */
(PID.TID 0000.0001)                 3.158080427002144E+05,      /* I =*** */
(PID.TID 0000.0001)                 3.175188551173586E+05,      /* I =*** */
(PID.TID 0000.0001)                 3.187781900626006E+05,      /* I =*** */
(PID.TID 0000.0001)                 3.195487812384848E+05,      /* I =*** */
(PID.TID 0000.0001)                 3.198082246942282E+05,      /* I =*** */
(PID.TID 0000.0001)                 3.195487812384848E+05,      /* I =*** */
(PID.TID 0000.0001)                 3.187781900626006E+05,      /* I =*** */
(PID.TID 0000.0001)                 3.175188551173586E+05,      /* I =*** */
(PID.TID 0000.0001)                 3.158080427002144E+05,      /* I =*** */
(PID.TID 0000.0001)                 3.136975008108302E+05,      /* I =*** */
(PID.TID 0000.0001)                 3.112530061794861E+05,      /* I =*** */
(PID.TID 0000.0001)                 3.085537100134814E+05,      /* I =*** */
(PID.TID 0000.0001)                 3.056911758960931E+05,      /* I =*** */
(PID.TID 0000.0001)                 3.027679303727833E+05,      /* I =*** */
(PID.TID 0000.0001)                 2.998952659771185E+05,      /* I =*** */
(PID.TID 0000.0001)                 2.971899783337052E+05,      /* I =*** */
(PID.TID 0000.0001)                 2.947697367015565E+05,      /* I =*** */
(PID.TID 0000.0001)                 2.927469477866010E+05,      /* I =*** */
(PID.TID 0000.0001)                 2.912213227212650E+05,      /* I =*** */
(PID.TID 0000.0001)                 2.902718654756529E+05,      /* I =*** */
(PID.TID 0000.0001)                 2.598293319150326E+05,      /* I =*** */
(PID.TID 0000.0001)                 2.605247136571591E+05,      /* I =*** */
(PID.TID 0000.0001)                 2.625781987034077E+05,      /* I =*** */
(PID.TID 0000.0001)                 2.657864830834272E+05,      /* I =*** */
(PID.TID 0000.0001)                 2.698839526285321E+05,      /* I =*** */
(PID.TID 0000.0001)                 2.745812566278220E+05,      /* I =*** */
(PID.TID 0000.0001)                 2.796034826143155E+05,      /* I =*** */
(PID.TID 0000.0001)                 2.847102987256835E+05,      /* I =*** */
(PID.TID 0000.0001)                 2.897017600496954E+05,      /* I =*** */
(PID.TID 0000.0001)                 2.944159886434956E+05,      /* I =*** */
(PID.TID 0000.0001)                 2.987236876295224E+05,      /* I =*** */
(PID.TID 0000.0001)                 3.025223454914123E+05,      /* I =*** */
(PID.TID 0000.0001)                 3.057313676343125E+05,      /* I =*** */
(PID.TID 0000.0001)                 3.082884490394393E+05,      /* I =*** */
(PID.TID 0000.0001)                 3.101470823422900E+05,      /* I =*** */
(PID.TID 0000.0001)                 3.112749589313555E+05,      /* I =*** */
(PID.TID 0000.0001)                 3.116531025121516E+05,      /* I =*** */
(PID.TID 0000.0001)                 3.112749589313555E+05,      /* I =*** */
(PID.TID 0000.0001)                 3.101470823422900E+05,      /* I =*** */
(PID.TID 0000.0001)                 3.082884490394393E+05,      /* I =*** */
(PID.TID 0000.0001)                 3.057313676343125E+05,      /* I =*** */
(PID.TID 0000.0001)                 3.025223454914123E+05,      /* I =*** */
(PID.TID 0000.0001)                 2.987236876295224E+05,      /* I =*** */
(PID.TID 0000.0001)                 2.944159886434956E+05,      /* I =*** */
(PID.TID 0000.0001)                 2.897017600496954E+05,      /* I =*** */
(PID.TID 0000.0001)                 2.847102987256835E+05,      /* I =*** */
(PID.TID 0000.0001)                 2.796034826143155E+05,      /* I =*** */
(PID.TID 0000.0001)                 2.745812566278220E+05,      /* I =*** */
(PID.TID 0000.0001)                 2.698839526285321E+05,      /* I =*** */
(PID.TID 0000.0001)                 2.657864830834272E+05,      /* I =*** */
(PID.TID 0000.0001)                 2.625781987034077E+05,      /* I =*** */
(PID.TID 0000.0001)                 2.605247136571591E+05,      /* I =*** */
(PID.TID 0000.0001)                 2.042717761866506E+05,      /* I =*** */
(PID.TID 0000.0001)                 2.068350806004581E+05,      /* I =*** */
(PID.TID 0000.0001)                 2.138086927377143E+05,      /* I =*** */
(PID.TID 0000.0001)                 2.233078585447743E+05,      /* I =*** */
(PID.TID 0000.0001)                 2.337608097814075E+05,      /* I =*** */
(PID.TID 0000.0001)                 2.442130550248370E+05,      /* I =*** */
(PID.TID 0000.0001)                 2.541694919462758E+05,      /* I =*** */
(PID.TID 0000.0001)                 2.633885327540043E+05,      /* I =*** */
(PID.TID 0000.0001)                 2.717530548984243E+05,      /* I =*** */
(PID.TID 0000.0001)                 2.792039108711187E+05,      /* I =*** */
(PID.TID 0000.0001)                 2.857081239734438E+05,      /* I =*** */
(PID.TID 0000.0001)                 2.912443307196133E+05,      /* I =*** */
(PID.TID 0000.0001)                 2.957965112547295E+05,      /* I =*** */
(PID.TID 0000.0001)                 2.993516374039656E+05,      /* I =*** */
(PID.TID 0000.0001)                 3.018991112427414E+05,      /* I =*** */
(PID.TID 0000.0001)                 3.034309408025300E+05,      /* I =*** */
(PID.TID 0000.0001)                 3.039422096857757E+05,      /* I =*** */
(PID.TID 0000.0001)                 3.034309408025300E+05,      /* I =*** */
(PID.TID 0000.0001)                 3.018991112427414E+05,      /* I =*** */
(PID.TID 0000.0001)                 2.993516374039656E+05,      /* I =*** */
(PID.TID 0000.0001)                 2.957965112547295E+05,      /* I =*** */
(PID.TID 0000.0001)                 2.912443307196133E+05,      /* I =*** */
(PID.TID 0000.0001)                 2.857081239734438E+05,      /* I =*** */
(PID.TID 0000.0001)                 2.792039108711187E+05,      /* I =*** */
(PID.TID 0000.0001)                 2.717530548984243E+05,      /* I =*** */
(PID.TID 0000.0001)                 2.633885327540043E+05,      /* I =*** */
(PID.TID 0000.0001)                 2.541694919462758E+05,      /* I =*** */
(PID.TID 0000.0001)                 2.442130550248370E+05,      /* I =*** */
(PID.TID 0000.0001)                 2.337608097814075E+05,      /* I =*** */
(PID.TID 0000.0001)                 2.233078585447743E+05,      /* I =*** */
(PID.TID 0000.0001)                 2.138086927377143E+05,      /* I =*** */
(PID.TID 0000.0001)                 2.068350806004581E+05,      /* I =*** */
(PID.TID 0000.0001)                 1.114203141013064E+05,      /* I =*** */
(PID.TID 0000.0001)                 1.391343389937106E+05,      /* I =*** */
(PID.TID 0000.0001)                 1.709574999026266E+05,      /* I =*** */
(PID.TID 0000.0001)                 1.946503699269892E+05,      /* I =*** */
(PID.TID 0000.0001)                 2.135964483342134E+05,      /* I =*** */
(PID.TID 0000.0001)                 2.294195678257306E+05,      /* I =*** */
(PID.TID 0000.0001)                 2.429464709770498E+05,      /* I =*** */
(PID.TID 0000.0001)                 2.546408290696998E+05,      /* I =*** */
(PID.TID 0000.0001)                 2.647791839299727E+05,      /* I =*** */
(PID.TID 0000.0001)                 2.735321911346108E+05,      /* I =*** */
(PID.TID 0000.0001)                 2.810065951609633E+05,      /* I =*** */
(PID.TID 0000.0001)                 2.872689479506990E+05,      /* I =*** */
(PID.TID 0000.0001)                 2.923599955312932E+05,      /* I =*** */
(PID.TID 0000.0001)                 2.963038832565530E+05,      /* I =*** */
(PID.TID 0000.0001)                 2.991142470004740E+05,      /* I =*** */
(PID.TID 0000.0001)                 3.007982711627968E+05,      /* I =*** */
(PID.TID 0000.0001)                 3.013593857228136E+05,      /* I =*** */
(PID.TID 0000.0001)                 3.007982711627968E+05,      /* I =*** */
(PID.TID 0000.0001)                 2.991142470004740E+05,      /* I =*** */
(PID.TID 0000.0001)                 2.963038832565530E+05,      /* I =*** */
(PID.TID 0000.0001)                 2.923599955312932E+05,      /* I =*** */
(PID.TID 0000.0001)                 2.872689479506990E+05,      /* I =*** */
(PID.TID 0000.0001)                 2.810065951609633E+05,      /* I =*** */
(PID.TID 0000.0001)                 2.735321911346108E+05,      /* I =*** */
(PID.TID 0000.0001)                 2.647791839299727E+05,      /* I =*** */
(PID.TID 0000.0001)                 2.546408290696998E+05,      /* I =*** */
(PID.TID 0000.0001)                 2.429464709770498E+05,      /* I =*** */
(PID.TID 0000.0001)                 2.294195678257306E+05,      /* I =*** */
(PID.TID 0000.0001)                 2.135964483342134E+05,      /* I =*** */
(PID.TID 0000.0001)                 1.946503699269892E+05,      /* I =*** */
(PID.TID 0000.0001)                 1.709574999026266E+05,      /* I =*** */
(PID.TID 0000.0001)                 1.391343389937106E+05,      /* I =*** */
(PID.TID 0000.0001)                 2.216367828252819E+05,      /* I =*** */
(PID.TID 0000.0001)                 2.233318358853647E+05,      /* I =*** */
(PID.TID 0000.0001)                 2.281334130974475E+05,      /* I =*** */
(PID.TID 0000.0001)                 2.350890794471406E+05,      /* I =*** */
(PID.TID 0000.0001)                 2.432236510574240E+05,      /* I =*** */
(PID.TID 0000.0001)                 2.517777164226335E+05,      /* I =*** */
(PID.TID 0000.0001)                 2.602456285594502E+05,      /* I =*** */
(PID.TID 0000.0001)                 2.683133946112084E+05,      /* I =*** */
(PID.TID 0000.0001)                 2.757889673278915E+05,      /* I =*** */
(PID.TID 0000.0001)                 2.825523346347177E+05,      /* I =*** */
(PID.TID 0000.0001)                 2.885249994841755E+05,      /* I =*** */
(PID.TID 0000.0001)                 2.936526595780224E+05,      /* I =*** */
(PID.TID 0000.0001)                 2.978958309396700E+05,      /* I =*** */
(PID.TID 0000.0001)                 3.012249990222233E+05,      /* I =*** */
(PID.TID 0000.0001)                 3.036182638196822E+05,      /* I =*** */
(PID.TID 0000.0001)                 3.050603049789793E+05,      /* I =*** */
(PID.TID 0000.0001)                 3.055420860601236E+05,      /* I =*** */
(PID.TID 0000.0001)                 3.050603049789793E+05,      /* I =*** */
(PID.TID 0000.0001)                 3.036182638196822E+05,      /* I =*** */
(PID.TID 0000.0001)                 3.012249990222233E+05,      /* I =*** */
(PID.TID 0000.0001)                 2.978958309396700E+05,      /* I =*** */
(PID.TID 0000.0001)                 2.936526595780224E+05,      /* I =*** */
(PID.TID 0000.0001)                 2.885249994841755E+05,      /* I =*** */
(PID.TID 0000.0001)                 2.825523346347177E+05,      /* I =*** */
(PID.TID 0000.0001)                 2.757889673278915E+05,      /* I =*** */
(PID.TID 0000.0001)                 2.683133946112084E+05,      /* I =*** */
(PID.TID 0000.0001)                 2.602456285594502E+05,      /* I =*** */
(PID.TID 0000.0001)                 2.517777164226335E+05,      /* I =*** */
(PID.TID 0000.0001)                 2.432236510574240E+05,      /* I =*** */
(PID.TID 0000.0001)                 2.350890794471406E+05,      /* I =*** */
(PID.TID 0000.0001)                 2.281334130974475E+05,      /* I =*** */
(PID.TID 0000.0001)                 2.233318358853647E+05,      /* I =*** */
(PID.TID 0000.0001)                 2.692787333338535E+05,      /* I =*** */
(PID.TID 0000.0001)                 2.698316926768863E+05,      /* I =*** */
(PID.TID 0000.0001)                 2.714713968328591E+05,      /* I =*** */
(PID.TID 0000.0001)                 2.740607206150700E+05,      /* I =*** */
(PID.TID 0000.0001)                 2.774139821809750E+05,      /* I =*** */
(PID.TID 0000.0001)                 2.813178027434184E+05,      /* I =*** */
(PID.TID 0000.0001)                 2.855567371326078E+05,      /* I =*** */
(PID.TID 0000.0001)                 2.899302743931477E+05,      /* I =*** */
(PID.TID 0000.0001)                 2.942613213681001E+05,      /* I =*** */
(PID.TID 0000.0001)                 2.983985950890736E+05,      /* I =*** */
(PID.TID 0000.0001)                 3.022156296499031E+05,      /* I =*** */
(PID.TID 0000.0001)                 3.056084178247824E+05,      /* I =*** */
(PID.TID 0000.0001)                 3.084928732605239E+05,      /* I =*** */
(PID.TID 0000.0001)                 3.108026640008289E+05,      /* I =*** */
(PID.TID 0000.0001)                 3.124875845707635E+05,      /* I =*** */
(PID.TID 0000.0001)                 3.135124429988134E+05,      /* I =*** */
(PID.TID 0000.0001)                 3.138564503561421E+05,      /* I =*** */
(PID.TID 0000.0001)                 3.135124429988134E+05,      /* I =*** */
(PID.TID 0000.0001)                 3.124875845707635E+05,      /* I =*** */
(PID.TID 0000.0001)                 3.108026640008289E+05,      /* I =*** */
(PID.TID 0000.0001)                 3.084928732605239E+05,      /* I =*** */
(PID.TID 0000.0001)                 3.056084178247824E+05,      /* I =*** */
(PID.TID 0000.0001)                 3.022156296499031E+05,      /* I =*** */
(PID.TID 0000.0001)                 2.983985950890736E+05,      /* I =*** */
(PID.TID 0000.0001)                 2.942613213681001E+05,      /* I =*** */
(PID.TID 0000.0001)                 2.899302743931477E+05,      /* I =*** */
(PID.TID 0000.0001)                 2.855567371326078E+05,      /* I =*** */
(PID.TID 0000.0001)                 2.813178027434184E+05,      /* I =*** */
(PID.TID 0000.0001)                 2.774139821809750E+05,      /* I =*** */
(PID.TID 0000.0001)                 2.740607206150700E+05,      /* I =*** */
(PID.TID 0000.0001)                 2.714713968328591E+05,      /* I =*** */
(PID.TID 0000.0001)                 2.698316926768863E+05,      /* I =*** */
(PID.TID 0000.0001)                 2.944741346384699E+05,      /* I =*** */
(PID.TID 0000.0001)                 2.947534032044371E+05,      /* I =*** */
(PID.TID 0000.0001)                 2.955821683657630E+05,      /* I =*** */
(PID.TID 0000.0001)                 2.969179832044766E+05,      /* I =*** */
(PID.TID 0000.0001)                 2.986967441200144E+05,      /* I =*** */
(PID.TID 0000.0001)                 3.008360640320133E+05,      /* I =*** */
(PID.TID 0000.0001)                 3.032410228118516E+05,      /* I =*** */
(PID.TID 0000.0001)                 3.058098685576374E+05,      /* I =*** */
(PID.TID 0000.0001)                 3.084391345892176E+05,      /* I =*** */
(PID.TID 0000.0001)                 3.110279121390598E+05,      /* I =*** */
(PID.TID 0000.0001)                 3.134812420732829E+05,      /* I =*** */
(PID.TID 0000.0001)                 3.157127231496777E+05,      /* I =*** */
(PID.TID 0000.0001)                 3.176464858965941E+05,      /* I =*** */
(PID.TID 0000.0001)                 3.192186772490244E+05,      /* I =*** */
(PID.TID 0000.0001)                 3.203785701445474E+05,      /* I =*** */
(PID.TID 0000.0001)                 3.210893751531767E+05,      /* I =*** */
(PID.TID 0000.0001)                 3.213288727261454E+05,      /* I =*** */
(PID.TID 0000.0001)                 3.210893751531767E+05,      /* I =*** */
(PID.TID 0000.0001)                 3.203785701445474E+05,      /* I =*** */
(PID.TID 0000.0001)                 3.192186772490244E+05,      /* I =*** */
(PID.TID 0000.0001)                 3.176464858965941E+05,      /* I =*** */
(PID.TID 0000.0001)                 3.157127231496777E+05,      /* I =*** */
(PID.TID 0000.0001)                 3.134812420732829E+05,      /* I =*** */
(PID.TID 0000.0001)                 3.110279121390598E+05,      /* I =*** */
(PID.TID 0000.0001)                 3.084391345892176E+05,      /* I =*** */
(PID.TID 0000.0001)                 3.058098685576374E+05,      /* I =*** */
(PID.TID 0000.0001)                 3.032410228118516E+05,      /* I =*** */
(PID.TID 0000.0001)                 3.008360640320133E+05,      /* I =*** */
(PID.TID 0000.0001)                 2.986967441200144E+05,      /* I =*** */
(PID.TID 0000.0001)                 2.969179832044766E+05,      /* I =*** */
(PID.TID 0000.0001)                 2.955821683657630E+05,      /* I =*** */
(PID.TID 0000.0001)                 2.947534032044371E+05,      /* I =*** */
(PID.TID 0000.0001)                 3.012281885409289E+05,      /* I =*** */
(PID.TID 0000.0001)                 3.014528555318499E+05,      /* I =*** */
(PID.TID 0000.0001)                 3.021172674809921E+05,      /* I =*** */
(PID.TID 0000.0001)                 3.031928954490276E+05,      /* I =*** */
(PID.TID 0000.0001)                 3.046340673197290E+05,      /* I =*** */
(PID.TID 0000.0001)                 3.063804565966232E+05,      /* I =*** */
(PID.TID 0000.0001)                 3.083602390447406E+05,      /* I =*** */
(PID.TID 0000.0001)                 3.104936054761689E+05,      /* I =*** */
(PID.TID 0000.0001)                 3.126963716684348E+05,      /* I =*** */
(PID.TID 0000.0001)                 3.148834765567928E+05,      /* I =*** */
(PID.TID 0000.0001)                 3.169722218029966E+05,      /* I =*** */
(PID.TID 0000.0001)                 3.188851642086189E+05,      /* I =*** */
(PID.TID 0000.0001)                 3.205526180491640E+05,      /* I =*** */
(PID.TID 0000.0001)                 3.219147544224371E+05,      /* I =*** */
(PID.TID 0000.0001)                 3.229233008154936E+05,      /* I =*** */
(PID.TID 0000.0001)                 3.235428501703109E+05,      /* I =*** */
(PID.TID 0000.0001)                 3.237518583690030E+05,      /* I =*** */
(PID.TID 0000.0001)                 3.235428501703109E+05,      /* I =*** */
(PID.TID 0000.0001)                 3.229233008154936E+05,      /* I =*** */
(PID.TID 0000.0001)                 3.219147544224371E+05,      /* I =*** */
(PID.TID 0000.0001)                 3.205526180491640E+05,      /* I =*** */
(PID.TID 0000.0001)                 3.188851642086189E+05,      /* I =*** */
(PID.TID 0000.0001)                 3.169722218029966E+05,      /* I =*** */
(PID.TID 0000.0001)                 3.148834765567928E+05,      /* I =*** */
(PID.TID 0000.0001)                 3.126963716684348E+05,      /* I =*** */
(PID.TID 0000.0001)                 3.104936054761689E+05,      /* I =*** */
(PID.TID 0000.0001)                 3.083602390447406E+05,      /* I =*** */
(PID.TID 0000.0001)                 3.063804565966232E+05,      /* I =*** */
(PID.TID 0000.0001)                 3.046340673197290E+05,      /* I =*** */
(PID.TID 0000.0001)                 3.031928954490276E+05,      /* I =*** */
(PID.TID 0000.0001)                 3.021172674809921E+05,      /* I =*** */
(PID.TID 0000.0001)                 3.014528555318499E+05,      /* I =*** */
(PID.TID 0000.0001)                 2.899523122489403E+05,      /* I =*** */
(PID.TID 0000.0001)                 2.902718654756529E+05,      /* I =*** */
(PID.TID 0000.0001)                 2.912213227212650E+05,      /* I =*** */
(PID.TID 0000.0001)                 2.927469477866010E+05,      /* I =*** */
(PID.TID 0000.0001)                 2.947697367015565E+05,      /* I =*** */
(PID.TID 0000.0001)                 2.971899783337052E+05,      /* I =*** */
(PID.TID 0000.0001)                 2.998952659771185E+05,      /* I =*** */
(PID.TID 0000.0001)                 3.027679303727833E+05,      /* I =*** */
(PID.TID 0000.0001)                 3.056911758960931E+05,      /* I =*** */
(PID.TID 0000.0001)                 3.085537100134814E+05,      /* I =*** */
(PID.TID 0000.0001)                 3.112530061794861E+05,      /* I =*** */
(PID.TID 0000.0001)                 3.136975008108302E+05,      /* I =*** */
(PID.TID 0000.0001)                 3.158080427002144E+05,      /* I =*** */
(PID.TID 0000.0001)                 3.175188551173586E+05,      /* I =*** */
(PID.TID 0000.0001)                 3.187781900626006E+05,      /* I =*** */
(PID.TID 0000.0001)                 3.195487812384848E+05,      /* I =*** */
(PID.TID 0000.0001)                 3.198082246942282E+05,      /* I =*** */
(PID.TID 0000.0001)                 3.195487812384848E+05,      /* I =*** */
(PID.TID 0000.0001)                 3.187781900626006E+05,      /* I =*** */
(PID.TID 0000.0001)                 3.175188551173586E+05,      /* I =*** */
(PID.TID 0000.0001)                 3.158080427002144E+05,      /* I =*** */
(PID.TID 0000.0001)                 3.136975008108302E+05,      /* I =*** */
(PID.TID 0000.0001)                 3.112530061794861E+05,      /* I =*** */
(PID.TID 0000.0001)                 3.085537100134814E+05,      /* I =*** */
(PID.TID 0000.0001)                 3.056911758960931E+05,      /* I =*** */
(PID.TID 0000.0001)                 3.027679303727833E+05,      /* I =*** */
(PID.TID 0000.0001)                 2.998952659771185E+05,      /* I =*** */
(PID.TID 0000.0001)                 2.971899783337052E+05,      /* I =*** */
(PID.TID 0000.0001)                 2.947697367015565E+05,      /* I =*** */
(PID.TID 0000.0001)                 2.927469477866010E+05,      /* I =*** */
(PID.TID 0000.0001)                 2.912213227212650E+05,      /* I =*** */
(PID.TID 0000.0001)                 2.902718654756529E+05,      /* I =*** */
(PID.TID 0000.0001)                 2.598293319150326E+05,      /* I =*** */
(PID.TID 0000.0001)                 2.605247136571591E+05,      /* I =*** */
(PID.TID 0000.0001)                 2.625781987034077E+05,      /* I =*** */
(PID.TID 0000.0001)                 2.657864830834272E+05,      /* I =*** */
(PID.TID 0000.0001)                 2.698839526285321E+05,      /* I =*** */
(PID.TID 0000.0001)                 2.745812566278220E+05,      /* I =*** */
(PID.TID 0000.0001)                 2.796034826143155E+05,      /* I =*** */
(PID.TID 0000.0001)                 2.847102987256835E+05,      /* I =*** */
(PID.TID 0000.0001)                 2.897017600496954E+05,      /* I =*** */
(PID.TID 0000.0001)                 2.944159886434956E+05,      /* I =*** */
(PID.TID 0000.0001)                 2.987236876295224E+05,      /* I =*** */
(PID.TID 0000.0001)                 3.025223454914123E+05,      /* I =*** */
(PID.TID 0000.0001)                 3.057313676343125E+05,      /* I =*** */
(PID.TID 0000.0001)                 3.082884490394393E+05,      /* I =*** */
(PID.TID 0000.0001)                 3.101470823422900E+05,      /* I =*** */
(PID.TID 0000.0001)                 3.112749589313555E+05,      /* I =*** */
(PID.TID 0000.0001)                 3.116531025121516E+05,      /* I =*** */
(PID.TID 0000.0001)                 3.112749589313555E+05,      /* I =*** */
(PID.TID 0000.0001)                 3.101470823422900E+05,      /* I =*** */
(PID.TID 0000.0001)                 3.082884490394393E+05,      /* I =*** */
(PID.TID 0000.0001)                 3.057313676343125E+05,      /* I =*** */
(PID.TID 0000.0001)                 3.025223454914123E+05,      /* I =*** */
(PID.TID 0000.0001)                 2.987236876295224E+05,      /* I =*** */
(PID.TID 0000.0001)                 2.944159886434956E+05,      /* I =*** */
(PID.TID 0000.0001)                 2.897017600496954E+05,      /* I =*** */
(PID.TID 0000.0001)                 2.847102987256835E+05,      /* I =*** */
(PID.TID 0000.0001)                 2.796034826143155E+05,      /* I =*** */
(PID.TID 0000.0001)                 2.745812566278220E+05,      /* I =*** */
(PID.TID 0000.0001)                 2.698839526285321E+05,      /* I =*** */
(PID.TID 0000.0001)                 2.657864830834272E+05,      /* I =*** */
(PID.TID 0000.0001)                 2.625781987034077E+05,      /* I =*** */
(PID.TID 0000.0001)                 2.605247136571591E+05,      /* I =*** */
(PID.TID 0000.0001)                 2.042717761866506E+05,      /* I =*** */
(PID.TID 0000.0001)                 2.068350806004581E+05,      /* I =*** */
(PID.TID 0000.0001)                 2.138086927377143E+05,      /* I =*** */
(PID.TID 0000.0001)                 2.233078585447743E+05,      /* I =*** */
(PID.TID 0000.0001)                 2.337608097814075E+05,      /* I =*** */
(PID.TID 0000.0001)                 2.442130550248370E+05,      /* I =*** */
(PID.TID 0000.0001)                 2.541694919462758E+05,      /* I =*** */
(PID.TID 0000.0001)                 2.633885327540043E+05,      /* I =*** */
(PID.TID 0000.0001)                 2.717530548984243E+05,      /* I =*** */
(PID.TID 0000.0001)                 2.792039108711187E+05,      /* I =*** */
(PID.TID 0000.0001)                 2.857081239734438E+05,      /* I =*** */
(PID.TID 0000.0001)                 2.912443307196133E+05,      /* I =*** */
(PID.TID 0000.0001)                 2.957965112547295E+05,      /* I =*** */
(PID.TID 0000.0001)                 2.993516374039656E+05,      /* I =*** */
(PID.TID 0000.0001)                 3.018991112427414E+05,      /* I =*** */
(PID.TID 0000.0001)                 3.034309408025300E+05,      /* I =*** */
(PID.TID 0000.0001)                 3.039422096857757E+05,      /* I =*** */
(PID.TID 0000.0001)                 3.034309408025300E+05,      /* I =*** */
(PID.TID 0000.0001)                 3.018991112427414E+05,      /* I =*** */
(PID.TID 0000.0001)                 2.993516374039656E+05,      /* I =*** */
(PID.TID 0000.0001)                 2.957965112547295E+05,      /* I =*** */
(PID.TID 0000.0001)                 2.912443307196133E+05,      /* I =*** */
(PID.TID 0000.0001)                 2.857081239734438E+05,      /* I =*** */
(PID.TID 0000.0001)                 2.792039108711187E+05,      /* I =*** */
(PID.TID 0000.0001)                 2.717530548984243E+05,      /* I =*** */
(PID.TID 0000.0001)                 2.633885327540043E+05,      /* I =*** */
(PID.TID 0000.0001)                 2.541694919462758E+05,      /* I =*** */
(PID.TID 0000.0001)                 2.442130550248370E+05,      /* I =*** */
(PID.TID 0000.0001)                 2.337608097814075E+05,      /* I =*** */
(PID.TID 0000.0001)                 2.233078585447743E+05,      /* I =*** */
(PID.TID 0000.0001)                 2.138086927377143E+05,      /* I =*** */
(PID.TID 0000.0001)                 2.068350806004581E+05       /* I =*** */
(PID.TID 0000.0001)     ;
(PID.TID 0000.0001) dxC =  /* dxC(1,:,1,:) ( m - cartesian, degrees - spherical ) */
(PID.TID 0000.0001)                 1.114203141013064E+05,      /* J =  1 */
(PID.TID 0000.0001)                 1.549545757850771E+05,      /* J =  2 */
(PID.TID 0000.0001)                 1.829777599966776E+05,      /* J =  3 */
(PID.TID 0000.0001)                 2.042717761866506E+05       /* J =  4 */
(PID.TID 0000.0001)     ;
(PID.TID 0000.0001) dyC =  /* dyC(:,1,:,1) ( m - cartesian, degrees - spherical ) */
(PID.TID 0000.0001)                 1.114203141013064E+05,      /* I =  1 */
(PID.TID 0000.0001)                 1.549545757850771E+05,      /* I =  2 */
(PID.TID 0000.0001)                 1.829777599966776E+05,      /* I =  3 */
(PID.TID 0000.0001)                 2.042717761866506E+05,      /* I =  4 */
(PID.TID 0000.0001)                 2.216367828252819E+05,      /* I =  5 */
(PID.TID 0000.0001)                 2.363029564123586E+05,      /* I =  6 */
(PID.TID 0000.0001)                 2.489113743322025E+05,      /* I =  7 */
(PID.TID 0000.0001)                 2.598293319150326E+05,      /* I =  8 */
(PID.TID 0000.0001)                 2.692787333338535E+05,      /* I =  9 */
(PID.TID 0000.0001)                 2.773972106720365E+05,      /* I = 10 */
(PID.TID 0000.0001)                 2.842706922224557E+05,      /* I = 11 */
(PID.TID 0000.0001)                 2.899523122489403E+05,      /* I = 12 */
(PID.TID 0000.0001)                 2.944741346384699E+05,      /* I = 13 */
(PID.TID 0000.0001)                 2.978547649292580E+05,      /* I = 14 */
(PID.TID 0000.0001)                 3.001044073506459E+05,      /* I = 15 */
(PID.TID 0000.0001)     2 @  3.012281885409289E+05,             /* I = 16: 17 */
(PID.TID 0000.0001)                 3.001044073506459E+05,      /* I = 18 */
(PID.TID 0000.0001)                 2.978547649292580E+05,      /* I = 19 */
(PID.TID 0000.0001)                 2.944741346384699E+05,      /* I = 20 */
(PID.TID 0000.0001)                 2.899523122489403E+05,      /* I = 21 */
(PID.TID 0000.0001)                 2.842706922224557E+05,      /* I = 22 */
(PID.TID 0000.0001)                 2.773972106720365E+05,      /* I = 23 */
(PID.TID 0000.0001)                 2.692787333338535E+05,      /* I = 24 */
(PID.TID 0000.0001)                 2.598293319150326E+05,      /* I = 25 */
(PID.TID 0000.0001)                 2.489113743322025E+05,      /* I = 26 */
(PID.TID 0000.0001)                 2.363029564123586E+05,      /* I = 27 */
(PID.TID 0000.0001)                 2.216367828252819E+05,      /* I = 28 */
(PID.TID 0000.0001)                 2.042717761866506E+05,      /* I = 29 */
(PID.TID 0000.0001)                 1.829777599966776E+05,      /* I = 30 */
(PID.TID 0000.0001)                 1.549545757850771E+05,      /* I = 31 */
(PID.TID 0000.0001)                 1.114203141013064E+05,      /* I = 32 */
(PID.TID 0000.0001)                 2.135964483342134E+05,      /* I = 33 */
(PID.TID 0000.0001)                 2.177261412410982E+05,      /* I = 34 */
(PID.TID 0000.0001)                 2.249049036770762E+05,      /* I = 35 */
(PID.TID 0000.0001)                 2.337608097814075E+05,      /* I = 36 */
(PID.TID 0000.0001)                 2.432236510574240E+05,      /* I = 37 */
(PID.TID 0000.0001)                 2.526238854469011E+05,      /* I = 38 */
(PID.TID 0000.0001)                 2.615809138747491E+05,      /* I = 39 */
(PID.TID 0000.0001)                 2.698839526285321E+05,      /* I = 40 */
(PID.TID 0000.0001)                 2.774139821809750E+05,      /* I = 41 */
(PID.TID 0000.0001)                 2.840999901950355E+05,      /* I = 42 */
(PID.TID 0000.0001)                 2.898960374748506E+05,      /* I = 43 */
(PID.TID 0000.0001)                 2.947697367015565E+05,      /* I = 44 */
(PID.TID 0000.0001)                 2.986967441200144E+05,      /* I = 45 */
(PID.TID 0000.0001)                 3.016583459871284E+05,      /* I = 46 */
(PID.TID 0000.0001)                 3.036405817622399E+05,      /* I = 47 */
(PID.TID 0000.0001)     2 @  3.046340673197290E+05,             /* I = 48: 49 */
(PID.TID 0000.0001)                 3.036405817622399E+05,      /* I = 50 */
(PID.TID 0000.0001)                 3.016583459871284E+05,      /* I = 51 */
(PID.TID 0000.0001)                 2.986967441200144E+05,      /* I = 52 */
(PID.TID 0000.0001)                 2.947697367015565E+05,      /* I = 53 */
(PID.TID 0000.0001)                 2.898960374748506E+05,      /* I = 54 */
(PID.TID 0000.0001)                 2.840999901950355E+05,      /* I = 55 */
(PID.TID 0000.0001)                 2.774139821809750E+05,      /* I = 56 */
(PID.TID 0000.0001)                 2.698839526285321E+05,      /* I = 57 */
(PID.TID 0000.0001)                 2.615809138747491E+05,      /* I = 58 */
(PID.TID 0000.0001)                 2.526238854469011E+05,      /* I = 59 */
(PID.TID 0000.0001)                 2.432236510574240E+05,      /* I = 60 */
(PID.TID 0000.0001)                 2.337608097814075E+05,      /* I = 61 */
(PID.TID 0000.0001)                 2.249049036770762E+05,      /* I = 62 */
(PID.TID 0000.0001)                 2.177261412410982E+05,      /* I = 63 */
(PID.TID 0000.0001)                 2.135964483342134E+05,      /* I = 64 */
(PID.TID 0000.0001)                 2.647791839299727E+05,      /* I = 65 */
(PID.TID 0000.0001)                 2.660295500376044E+05,      /* I = 66 */
(PID.TID 0000.0001)                 2.684194260377608E+05,      /* I = 67 */
(PID.TID 0000.0001)                 2.717530548984243E+05,      /* I = 68 */
(PID.TID 0000.0001)                 2.757889673278915E+05,      /* I = 69 */
(PID.TID 0000.0001)                 2.802768275386160E+05,      /* I = 70 */
(PID.TID 0000.0001)                 2.849827251709129E+05,      /* I = 71 */
(PID.TID 0000.0001)                 2.897017600496954E+05,      /* I = 72 */
(PID.TID 0000.0001)                 2.942613213681001E+05,      /* I = 73 */
(PID.TID 0000.0001)                 2.985192628631004E+05,      /* I = 74 */
(PID.TID 0000.0001)                 3.023601215446892E+05,      /* I = 75 */
(PID.TID 0000.0001)                 3.056911758960931E+05,      /* I = 76 */
(PID.TID 0000.0001)                 3.084391345892176E+05,      /* I = 77 */
(PID.TID 0000.0001)                 3.105476657588797E+05,      /* I = 78 */
(PID.TID 0000.0001)                 3.119757031822313E+05,      /* I = 79 */
(PID.TID 0000.0001)     2 @  3.126963716684348E+05,             /* I = 80: 81 */
(PID.TID 0000.0001)                 3.119757031822313E+05,      /* I = 82 */
(PID.TID 0000.0001)                 3.105476657588797E+05,      /* I = 83 */
(PID.TID 0000.0001)                 3.084391345892176E+05,      /* I = 84 */
(PID.TID 0000.0001)                 3.056911758960931E+05,      /* I = 85 */
(PID.TID 0000.0001)                 3.023601215446892E+05,      /* I = 86 */
(PID.TID 0000.0001)                 2.985192628631004E+05,      /* I = 87 */
(PID.TID 0000.0001)                 2.942613213681001E+05,      /* I = 88 */
(PID.TID 0000.0001)                 2.897017600496954E+05,      /* I = 89 */
(PID.TID 0000.0001)                 2.849827251709129E+05,      /* I = 90 */
(PID.TID 0000.0001)                 2.802768275386160E+05,      /* I = 91 */
(PID.TID 0000.0001)                 2.757889673278915E+05,      /* I = 92 */
(PID.TID 0000.0001)                 2.717530548984243E+05,      /* I = 93 */
(PID.TID 0000.0001)                 2.684194260377608E+05,      /* I = 94 */
(PID.TID 0000.0001)                 2.660295500376044E+05,      /* I = 95 */
(PID.TID 0000.0001)                 2.647791839299727E+05,      /* I = 96 */
(PID.TID 0000.0001)                 2.923599955312932E+05,      /* I = 97 */
(PID.TID 0000.0001)                 2.929581318669225E+05,      /* I = 98 */
(PID.TID 0000.0001)                 2.941233414269843E+05,      /* I = 99 */
(PID.TID 0000.0001)                 2.957965112547295E+05,      /* I =100 */
(PID.TID 0000.0001)                 2.978958309396700E+05,      /* I =101 */
(PID.TID 0000.0001)                 3.003234072832736E+05,      /* I =102 */
(PID.TID 0000.0001)                 3.029720440125284E+05,      /* I =103 */
(PID.TID 0000.0001)                 3.057313676343125E+05,      /* I =104 */
(PID.TID 0000.0001)                 3.084928732605239E+05,      /* I =105 */
(PID.TID 0000.0001)                 3.111538082049081E+05,      /* I =106 */
(PID.TID 0000.0001)                 3.136200274287855E+05,      /* I =107 */
(PID.TID 0000.0001)                 3.158080427002144E+05,      /* I =108 */
(PID.TID 0000.0001)                 3.176464858965941E+05,      /* I =109 */
(PID.TID 0000.0001)                 3.190771611966717E+05,      /* I =110 */
(PID.TID 0000.0001)                 3.200558043339545E+05,      /* I =111 */
(PID.TID 0000.0001)     2 @  3.205526180491640E+05,             /* I =112:113 */
(PID.TID 0000.0001)                 3.200558043339545E+05,      /* I =114 */
(PID.TID 0000.0001)                 3.190771611966717E+05,      /* I =115 */
(PID.TID 0000.0001)                 3.176464858965941E+05,      /* I =116 */
(PID.TID 0000.0001)                 3.158080427002144E+05,      /* I =117 */
(PID.TID 0000.0001)                 3.136200274287855E+05,      /* I =118 */
(PID.TID 0000.0001)                 3.111538082049081E+05,      /* I =119 */
(PID.TID 0000.0001)                 3.084928732605239E+05,      /* I =120 */
(PID.TID 0000.0001)                 3.057313676343125E+05,      /* I =121 */
(PID.TID 0000.0001)                 3.029720440125284E+05,      /* I =122 */
(PID.TID 0000.0001)                 3.003234072832736E+05,      /* I =123 */
(PID.TID 0000.0001)                 2.978958309396700E+05,      /* I =124 */
(PID.TID 0000.0001)                 2.957965112547295E+05,      /* I =125 */
(PID.TID 0000.0001)                 2.941233414269843E+05,      /* I =126 */
(PID.TID 0000.0001)                 2.929581318669225E+05,      /* I =127 */
(PID.TID 0000.0001)                 2.923599955312932E+05,      /* I =128 */
(PID.TID 0000.0001)                 3.013593857228136E+05,      /* I =129 */
(PID.TID 0000.0001)                 3.018056440786431E+05,      /* I =130 */
(PID.TID 0000.0001)                 3.026789946729719E+05,      /* I =131 */
(PID.TID 0000.0001)                 3.039422096857757E+05,      /* I =132 */
(PID.TID 0000.0001)                 3.055420860601236E+05,      /* I =133 */
(PID.TID 0000.0001)                 3.074122965148668E+05,      /* I =134 */
(PID.TID 0000.0001)                 3.094767373001940E+05,      /* I =135 */
(PID.TID 0000.0001)                 3.116531025121516E+05,      /* I =136 */
(PID.TID 0000.0001)                 3.138564503561421E+05,      /* I =137 */
(PID.TID 0000.0001)                 3.160025832904765E+05,      /* I =138 */
(PID.TID 0000.0001)                 3.180111244362097E+05,      /* I =139 */
(PID.TID 0000.0001)                 3.198082246942282E+05,      /* I =140 */
(PID.TID 0000.0001)                 3.213288727261454E+05,      /* I =141 */
(PID.TID 0000.0001)                 3.225188028454169E+05,      /* I =142 */
(PID.TID 0000.0001)                 3.233360067886980E+05,      /* I =143 */
(PID.TID 0000.0001)     2 @  3.237518583690030E+05,             /* I =144:145 */
(PID.TID 0000.0001)                 3.233360067886980E+05,      /* I =146 */
(PID.TID 0000.0001)                 3.225188028454169E+05,      /* I =147 */
(PID.TID 0000.0001)                 3.213288727261454E+05,      /* I =148 */
(PID.TID 0000.0001)                 3.198082246942282E+05,      /* I =149 */
(PID.TID 0000.0001)                 3.180111244362097E+05,      /* I =150 */
(PID.TID 0000.0001)                 3.160025832904765E+05,      /* I =151 */
(PID.TID 0000.0001)                 3.138564503561421E+05,      /* I =152 */
(PID.TID 0000.0001)                 3.116531025121516E+05,      /* I =153 */
(PID.TID 0000.0001)                 3.094767373001940E+05,      /* I =154 */
(PID.TID 0000.0001)                 3.074122965148668E+05,      /* I =155 */
(PID.TID 0000.0001)                 3.055420860601236E+05,      /* I =156 */
(PID.TID 0000.0001)                 3.039422096857757E+05,      /* I =157 */
(PID.TID 0000.0001)                 3.026789946729719E+05,      /* I =158 */
(PID.TID 0000.0001)                 3.018056440786431E+05,      /* I =159 */
(PID.TID 0000.0001)                 3.013593857228136E+05,      /* I =160 */
(PID.TID 0000.0001)                 2.923599955312932E+05,      /* I =161 */
(PID.TID 0000.0001)                 2.929581318669225E+05,      /* I =162 */
(PID.TID 0000.0001)                 2.941233414269843E+05,      /* I =163 */
(PID.TID 0000.0001)                 2.957965112547295E+05,      /* I =164 */
(PID.TID 0000.0001)                 2.978958309396700E+05,      /* I =165 */
(PID.TID 0000.0001)                 3.003234072832736E+05,      /* I =166 */
(PID.TID 0000.0001)                 3.029720440125284E+05,      /* I =167 */
(PID.TID 0000.0001)                 3.057313676343125E+05,      /* I =168 */
(PID.TID 0000.0001)                 3.084928732605239E+05,      /* I =169 */
(PID.TID 0000.0001)                 3.111538082049081E+05,      /* I =170 */
(PID.TID 0000.0001)                 3.136200274287855E+05,      /* I =171 */
(PID.TID 0000.0001)                 3.158080427002144E+05,      /* I =172 */
(PID.TID 0000.0001)                 3.176464858965941E+05,      /* I =173 */
(PID.TID 0000.0001)                 3.190771611966717E+05,      /* I =174 */
(PID.TID 0000.0001)                 3.200558043339545E+05,      /* I =175 */
(PID.TID 0000.0001)     2 @  3.205526180491640E+05,             /* I =176:177 */
(PID.TID 0000.0001)                 3.200558043339545E+05,      /* I =178 */
(PID.TID 0000.0001)                 3.190771611966717E+05,      /* I =179 */
(PID.TID 0000.0001)                 3.176464858965941E+05,      /* I =180 */
(PID.TID 0000.0001)                 3.158080427002144E+05,      /* I =181 */
(PID.TID 0000.0001)                 3.136200274287855E+05,      /* I =182 */
(PID.TID 0000.0001)                 3.111538082049081E+05,      /* I =183 */
(PID.TID 0000.0001)                 3.084928732605239E+05,      /* I =184 */
(PID.TID 0000.0001)                 3.057313676343125E+05,      /* I =185 */
(PID.TID 0000.0001)                 3.029720440125284E+05,      /* I =186 */
(PID.TID 0000.0001)                 3.003234072832736E+05,      /* I =187 */
(PID.TID 0000.0001)                 2.978958309396700E+05,      /* I =188 */
(PID.TID 0000.0001)                 2.957965112547295E+05,      /* I =189 */
(PID.TID 0000.0001)                 2.941233414269843E+05,      /* I =190 */
(PID.TID 0000.0001)                 2.929581318669225E+05,      /* I =191 */
(PID.TID 0000.0001)                 2.923599955312932E+05,      /* I =192 */
(PID.TID 0000.0001)                 2.647791839299727E+05,      /* I =193 */
(PID.TID 0000.0001)                 2.660295500376044E+05,      /* I =194 */
(PID.TID 0000.0001)                 2.684194260377608E+05,      /* I =195 */
(PID.TID 0000.0001)                 2.717530548984243E+05,      /* I =196 */
(PID.TID 0000.0001)                 2.757889673278915E+05,      /* I =197 */
(PID.TID 0000.0001)                 2.802768275386160E+05,      /* I =198 */
(PID.TID 0000.0001)                 2.849827251709129E+05,      /* I =199 */
(PID.TID 0000.0001)                 2.897017600496954E+05,      /* I =200 */
(PID.TID 0000.0001)                 2.942613213681001E+05,      /* I =201 */
(PID.TID 0000.0001)                 2.985192628631004E+05,      /* I =202 */
(PID.TID 0000.0001)                 3.023601215446892E+05,      /* I =203 */
(PID.TID 0000.0001)                 3.056911758960931E+05,      /* I =204 */
(PID.TID 0000.0001)                 3.084391345892176E+05,      /* I =205 */
(PID.TID 0000.0001)                 3.105476657588797E+05,      /* I =206 */
(PID.TID 0000.0001)                 3.119757031822313E+05,      /* I =207 */
(PID.TID 0000.0001)     2 @  3.126963716684348E+05,             /* I =208:209 */
(PID.TID 0000.0001)                 3.119757031822313E+05,      /* I =210 */
(PID.TID 0000.0001)                 3.105476657588797E+05,      /* I =211 */
(PID.TID 0000.0001)                 3.084391345892176E+05,      /* I =212 */
(PID.TID 0000.0001)                 3.056911758960931E+05,      /* I =213 */
(PID.TID 0000.0001)                 3.023601215446892E+05,      /* I =214 */
(PID.TID 0000.0001)                 2.985192628631004E+05,      /* I =215 */
(PID.TID 0000.0001)                 2.942613213681001E+05,      /* I =216 */
(PID.TID 0000.0001)                 2.897017600496954E+05,      /* I =217 */
(PID.TID 0000.0001)                 2.849827251709129E+05,      /* I =218 */
(PID.TID 0000.0001)                 2.802768275386160E+05,      /* I =219 */
(PID.TID 0000.0001)                 2.757889673278915E+05,      /* I =220 */
(PID.TID 0000.0001)                 2.717530548984243E+05,      /* I =221 */
(PID.TID 0000.0001)                 2.684194260377608E+05,      /* I =222 */
(PID.TID 0000.0001)                 2.660295500376044E+05,      /* I =223 */
(PID.TID 0000.0001)                 2.647791839299727E+05,      /* I =224 */
(PID.TID 0000.0001)                 2.135964483342134E+05,      /* I =225 */
(PID.TID 0000.0001)                 2.177261412410982E+05,      /* I =226 */
(PID.TID 0000.0001)                 2.249049036770762E+05,      /* I =227 */
(PID.TID 0000.0001)                 2.337608097814075E+05,      /* I =228 */
(PID.TID 0000.0001)                 2.432236510574240E+05,      /* I =229 */
(PID.TID 0000.0001)                 2.526238854469011E+05,      /* I =230 */
(PID.TID 0000.0001)                 2.615809138747491E+05,      /* I =231 */
(PID.TID 0000.0001)                 2.698839526285321E+05,      /* I =232 */
(PID.TID 0000.0001)                 2.774139821809750E+05,      /* I =233 */
(PID.TID 0000.0001)                 2.840999901950355E+05,      /* I =234 */
(PID.TID 0000.0001)                 2.898960374748506E+05,      /* I =235 */
(PID.TID 0000.0001)                 2.947697367015565E+05,      /* I =236 */
(PID.TID 0000.0001)                 2.986967441200144E+05,      /* I =237 */
(PID.TID 0000.0001)                 3.016583459871284E+05,      /* I =238 */
(PID.TID 0000.0001)                 3.036405817622399E+05,      /* I =239 */
(PID.TID 0000.0001)     2 @  3.046340673197290E+05,             /* I =240:241 */
(PID.TID 0000.0001)                 3.036405817622399E+05,      /* I =242 */
(PID.TID 0000.0001)                 3.016583459871284E+05,      /* I =243 */
(PID.TID 0000.0001)                 2.986967441200144E+05,      /* I =244 */
(PID.TID 0000.0001)                 2.947697367015565E+05,      /* I =245 */
(PID.TID 0000.0001)                 2.898960374748506E+05,      /* I =246 */
(PID.TID 0000.0001)                 2.840999901950355E+05,      /* I =247 */
(PID.TID 0000.0001)                 2.774139821809750E+05,      /* I =248 */
(PID.TID 0000.0001)                 2.698839526285321E+05,      /* I =249 */
(PID.TID 0000.0001)                 2.615809138747491E+05,      /* I =250 */
(PID.TID 0000.0001)                 2.526238854469011E+05,      /* I =251 */
(PID.TID 0000.0001)                 2.432236510574240E+05,      /* I =252 */
(PID.TID 0000.0001)                 2.337608097814075E+05,      /* I =253 */
(PID.TID 0000.0001)                 2.249049036770762E+05,      /* I =254 */
(PID.TID 0000.0001)                 2.177261412410982E+05,      /* I =255 */
(PID.TID 0000.0001)                 2.135964483342134E+05,      /* I =256 */
(PID.TID 0000.0001)                 1.114203141013064E+05,      /* I =257 */
(PID.TID 0000.0001)                 1.549545757850771E+05,      /* I =258 */
(PID.TID 0000.0001)                 1.829777599966776E+05,      /* I =259 */
(PID.TID 0000.0001)                 2.042717761866506E+05,      /* I =260 */
(PID.TID 0000.0001)                 2.216367828252819E+05,      /* I =261 */
(PID.TID 0000.0001)                 2.363029564123586E+05,      /* I =262 */
(PID.TID 0000.0001)                 2.489113743322025E+05,      /* I =263 */
(PID.TID 0000.0001)                 2.598293319150326E+05,      /* I =264 */
(PID.TID 0000.0001)                 2.692787333338535E+05,      /* I =265 */
(PID.TID 0000.0001)                 2.773972106720365E+05,      /* I =266 */
(PID.TID 0000.0001)                 2.842706922224557E+05,      /* I =267 */
(PID.TID 0000.0001)                 2.899523122489403E+05,      /* I =268 */
(PID.TID 0000.0001)                 2.944741346384699E+05,      /* I =269 */
(PID.TID 0000.0001)                 2.978547649292580E+05,      /* I =270 */
(PID.TID 0000.0001)                 3.001044073506459E+05,      /* I =271 */
(PID.TID 0000.0001)     2 @  3.012281885409289E+05,             /* I =272:273 */
(PID.TID 0000.0001)                 3.001044073506459E+05,      /* I =274 */
(PID.TID 0000.0001)                 2.978547649292580E+05,      /* I =275 */
(PID.TID 0000.0001)                 2.944741346384699E+05,      /* I =276 */
(PID.TID 0000.0001)                 2.899523122489403E+05,      /* I =277 */
(PID.TID 0000.0001)                 2.842706922224557E+05,      /* I =278 */
(PID.TID 0000.0001)                 2.773972106720365E+05,      /* I =279 */
(PID.TID 0000.0001)                 2.692787333338535E+05,      /* I =280 */
(PID.TID 0000.0001)                 2.598293319150326E+05,      /* I =281 */
(PID.TID 0000.0001)                 2.489113743322025E+05,      /* I =282 */
(PID.TID 0000.0001)                 2.363029564123586E+05,      /* I =283 */
(PID.TID 0000.0001)                 2.216367828252819E+05,      /* I =284 */
(PID.TID 0000.0001)                 2.042717761866506E+05,      /* I =285 */
(PID.TID 0000.0001)                 1.829777599966776E+05,      /* I =286 */
(PID.TID 0000.0001)                 1.549545757850771E+05,      /* I =287 */
(PID.TID 0000.0001)                 1.114203141013064E+05,      /* I =288 */
(PID.TID 0000.0001)                 2.135964483342134E+05,      /* I =289 */
(PID.TID 0000.0001)                 2.177261412410982E+05,      /* I =290 */
(PID.TID 0000.0001)                 2.249049036770762E+05,      /* I =291 */
(PID.TID 0000.0001)                 2.337608097814075E+05,      /* I =292 */
(PID.TID 0000.0001)                 2.432236510574240E+05,      /* I =293 */
(PID.TID 0000.0001)                 2.526238854469011E+05,      /* I =294 */
(PID.TID 0000.0001)                 2.615809138747491E+05,      /* I =295 */
(PID.TID 0000.0001)                 2.698839526285321E+05,      /* I =296 */
(PID.TID 0000.0001)                 2.774139821809750E+05,      /* I =297 */
(PID.TID 0000.0001)                 2.840999901950355E+05,      /* I =298 */
(PID.TID 0000.0001)                 2.898960374748506E+05,      /* I =299 */
(PID.TID 0000.0001)                 2.947697367015565E+05,      /* I =300 */
(PID.TID 0000.0001)                 2.986967441200144E+05,      /* I =301 */
(PID.TID 0000.0001)                 3.016583459871284E+05,      /* I =302 */
(PID.TID 0000.0001)                 3.036405817622399E+05,      /* I =303 */
(PID.TID 0000.0001)     2 @  3.046340673197290E+05,             /* I =304:305 */
(PID.TID 0000.0001)                 3.036405817622399E+05,      /* I =306 */
(PID.TID 0000.0001)                 3.016583459871284E+05,      /* I =307 */
(PID.TID 0000.0001)                 2.986967441200144E+05,      /* I =308 */
(PID.TID 0000.0001)                 2.947697367015565E+05,      /* I =309 */
(PID.TID 0000.0001)                 2.898960374748506E+05,      /* I =310 */
(PID.TID 0000.0001)                 2.840999901950355E+05,      /* I =311 */
(PID.TID 0000.0001)                 2.774139821809750E+05,      /* I =312 */
(PID.TID 0000.0001)                 2.698839526285321E+05,      /* I =313 */
(PID.TID 0000.0001)                 2.615809138747491E+05,      /* I =314 */
(PID.TID 0000.0001)                 2.526238854469011E+05,      /* I =315 */
(PID.TID 0000.0001)                 2.432236510574240E+05,      /* I =316 */
(PID.TID 0000.0001)                 2.337608097814075E+05,      /* I =317 */
(PID.TID 0000.0001)                 2.249049036770762E+05,      /* I =318 */
(PID.TID 0000.0001)                 2.177261412410982E+05,      /* I =319 */
(PID.TID 0000.0001)                 2.135964483342134E+05,      /* I =320 */
(PID.TID 0000.0001)                 2.647791839299727E+05,      /* I =321 */
(PID.TID 0000.0001)                 2.660295500376044E+05,      /* I =322 */
(PID.TID 0000.0001)                 2.684194260377608E+05,      /* I =323 */
(PID.TID 0000.0001)                 2.717530548984243E+05,      /* I =324 */
(PID.TID 0000.0001)                 2.757889673278915E+05,      /* I =325 */
(PID.TID 0000.0001)                 2.802768275386160E+05,      /* I =326 */
(PID.TID 0000.0001)                 2.849827251709129E+05,      /* I =327 */
(PID.TID 0000.0001)                 2.897017600496954E+05,      /* I =328 */
(PID.TID 0000.0001)                 2.942613213681001E+05,      /* I =329 */
(PID.TID 0000.0001)                 2.985192628631004E+05,      /* I =330 */
(PID.TID 0000.0001)                 3.023601215446892E+05,      /* I =331 */
(PID.TID 0000.0001)                 3.056911758960931E+05,      /* I =332 */
(PID.TID 0000.0001)                 3.084391345892176E+05,      /* I =333 */
(PID.TID 0000.0001)                 3.105476657588797E+05,      /* I =334 */
(PID.TID 0000.0001)                 3.119757031822313E+05,      /* I =335 */
(PID.TID 0000.0001)     2 @  3.126963716684348E+05,             /* I =336:337 */
(PID.TID 0000.0001)                 3.119757031822313E+05,      /* I =338 */
(PID.TID 0000.0001)                 3.105476657588797E+05,      /* I =339 */
(PID.TID 0000.0001)                 3.084391345892176E+05,      /* I =340 */
(PID.TID 0000.0001)                 3.056911758960931E+05,      /* I =341 */
(PID.TID 0000.0001)                 3.023601215446892E+05,      /* I =342 */
(PID.TID 0000.0001)                 2.985192628631004E+05,      /* I =343 */
(PID.TID 0000.0001)                 2.942613213681001E+05,      /* I =344 */
(PID.TID 0000.0001)                 2.897017600496954E+05,      /* I =345 */
(PID.TID 0000.0001)                 2.849827251709129E+05,      /* I =346 */
(PID.TID 0000.0001)                 2.802768275386160E+05,      /* I =347 */
(PID.TID 0000.0001)                 2.757889673278915E+05,      /* I =348 */
(PID.TID 0000.0001)                 2.717530548984243E+05,      /* I =349 */
(PID.TID 0000.0001)                 2.684194260377608E+05,      /* I =350 */
(PID.TID 0000.0001)                 2.660295500376044E+05,      /* I =351 */
(PID.TID 0000.0001)                 2.647791839299727E+05,      /* I =352 */
(PID.TID 0000.0001)                 2.923599955312932E+05,      /* I =353 */
(PID.TID 0000.0001)                 2.929581318669225E+05,      /* I =354 */
(PID.TID 0000.0001)                 2.941233414269843E+05,      /* I =355 */
(PID.TID 0000.0001)                 2.957965112547295E+05,      /* I =356 */
(PID.TID 0000.0001)                 2.978958309396700E+05,      /* I =357 */
(PID.TID 0000.0001)                 3.003234072832736E+05,      /* I =358 */
(PID.TID 0000.0001)                 3.029720440125284E+05,      /* I =359 */
(PID.TID 0000.0001)                 3.057313676343125E+05,      /* I =360 */
(PID.TID 0000.0001)                 3.084928732605239E+05,      /* I =361 */
(PID.TID 0000.0001)                 3.111538082049081E+05,      /* I =362 */
(PID.TID 0000.0001)                 3.136200274287855E+05,      /* I =363 */
(PID.TID 0000.0001)                 3.158080427002144E+05,      /* I =364 */
(PID.TID 0000.0001)                 3.176464858965941E+05,      /* I =365 */
(PID.TID 0000.0001)                 3.190771611966717E+05,      /* I =366 */
(PID.TID 0000.0001)                 3.200558043339545E+05,      /* I =367 */
(PID.TID 0000.0001)     2 @  3.205526180491640E+05,             /* I =368:369 */
(PID.TID 0000.0001)                 3.200558043339545E+05,      /* I =370 */
(PID.TID 0000.0001)                 3.190771611966717E+05,      /* I =371 */
(PID.TID 0000.0001)                 3.176464858965941E+05,      /* I =372 */
(PID.TID 0000.0001)                 3.158080427002144E+05,      /* I =373 */
(PID.TID 0000.0001)                 3.136200274287855E+05,      /* I =374 */
(PID.TID 0000.0001)                 3.111538082049081E+05,      /* I =375 */
(PID.TID 0000.0001)                 3.084928732605239E+05,      /* I =376 */
(PID.TID 0000.0001)                 3.057313676343125E+05,      /* I =377 */
(PID.TID 0000.0001)                 3.029720440125284E+05,      /* I =378 */
(PID.TID 0000.0001)                 3.003234072832736E+05,      /* I =379 */
(PID.TID 0000.0001)                 2.978958309396700E+05,      /* I =380 */
(PID.TID 0000.0001)                 2.957965112547295E+05,      /* I =381 */
(PID.TID 0000.0001)                 2.941233414269843E+05,      /* I =382 */
(PID.TID 0000.0001)                 2.929581318669225E+05,      /* I =383 */
(PID.TID 0000.0001)                 2.923599955312932E+05,      /* I =384 */
(PID.TID 0000.0001)                 3.013593857228136E+05,      /* I =385 */
(PID.TID 0000.0001)                 3.018056440786431E+05,      /* I =386 */
(PID.TID 0000.0001)                 3.026789946729719E+05,      /* I =387 */
(PID.TID 0000.0001)                 3.039422096857757E+05,      /* I =388 */
(PID.TID 0000.0001)                 3.055420860601236E+05,      /* I =389 */
(PID.TID 0000.0001)                 3.074122965148668E+05,      /* I =390 */
(PID.TID 0000.0001)                 3.094767373001940E+05,      /* I =391 */
(PID.TID 0000.0001)                 3.116531025121516E+05,      /* I =392 */
(PID.TID 0000.0001)                 3.138564503561421E+05,      /* I =393 */
(PID.TID 0000.0001)                 3.160025832904765E+05,      /* I =394 */
(PID.TID 0000.0001)                 3.180111244362097E+05,      /* I =395 */
(PID.TID 0000.0001)                 3.198082246942282E+05,      /* I =396 */
(PID.TID 0000.0001)                 3.213288727261454E+05,      /* I =397 */
(PID.TID 0000.0001)                 3.225188028454169E+05,      /* I =398 */
(PID.TID 0000.0001)                 3.233360067886980E+05,      /* I =399 */
(PID.TID 0000.0001)     2 @  3.237518583690030E+05,             /* I =400:401 */
(PID.TID 0000.0001)                 3.233360067886980E+05,      /* I =402 */
(PID.TID 0000.0001)                 3.225188028454169E+05,      /* I =403 */
(PID.TID 0000.0001)                 3.213288727261454E+05,      /* I =404 */
(PID.TID 0000.0001)                 3.198082246942282E+05,      /* I =405 */
(PID.TID 0000.0001)                 3.180111244362097E+05,      /* I =406 */
(PID.TID 0000.0001)                 3.160025832904765E+05,      /* I =407 */
(PID.TID 0000.0001)                 3.138564503561421E+05,      /* I =408 */
(PID.TID 0000.0001)                 3.116531025121516E+05,      /* I =409 */
(PID.TID 0000.0001)                 3.094767373001940E+05,      /* I =410 */
(PID.TID 0000.0001)                 3.074122965148668E+05,      /* I =411 */
(PID.TID 0000.0001)                 3.055420860601236E+05,      /* I =412 */
(PID.TID 0000.0001)                 3.039422096857757E+05,      /* I =413 */
(PID.TID 0000.0001)                 3.026789946729719E+05,      /* I =414 */
(PID.TID 0000.0001)                 3.018056440786431E+05,      /* I =415 */
(PID.TID 0000.0001)                 3.013593857228136E+05,      /* I =416 */
(PID.TID 0000.0001)                 2.923599955312932E+05,      /* I =417 */
(PID.TID 0000.0001)                 2.929581318669225E+05,      /* I =418 */
(PID.TID 0000.0001)                 2.941233414269843E+05,      /* I =419 */
(PID.TID 0000.0001)                 2.957965112547295E+05,      /* I =420 */
(PID.TID 0000.0001)                 2.978958309396700E+05,      /* I =421 */
(PID.TID 0000.0001)                 3.003234072832736E+05,      /* I =422 */
(PID.TID 0000.0001)                 3.029720440125284E+05,      /* I =423 */
(PID.TID 0000.0001)                 3.057313676343125E+05,      /* I =424 */
(PID.TID 0000.0001)                 3.084928732605239E+05,      /* I =425 */
(PID.TID 0000.0001)                 3.111538082049081E+05,      /* I =426 */
(PID.TID 0000.0001)                 3.136200274287855E+05,      /* I =427 */
(PID.TID 0000.0001)                 3.158080427002144E+05,      /* I =428 */
(PID.TID 0000.0001)                 3.176464858965941E+05,      /* I =429 */
(PID.TID 0000.0001)                 3.190771611966717E+05,      /* I =430 */
(PID.TID 0000.0001)                 3.200558043339545E+05,      /* I =431 */
(PID.TID 0000.0001)     2 @  3.205526180491640E+05,             /* I =432:433 */
(PID.TID 0000.0001)                 3.200558043339545E+05,      /* I =434 */
(PID.TID 0000.0001)                 3.190771611966717E+05,      /* I =435 */
(PID.TID 0000.0001)                 3.176464858965941E+05,      /* I =436 */
(PID.TID 0000.0001)                 3.158080427002144E+05,      /* I =437 */
(PID.TID 0000.0001)                 3.136200274287855E+05,      /* I =438 */
(PID.TID 0000.0001)                 3.111538082049081E+05,      /* I =439 */
(PID.TID 0000.0001)                 3.084928732605239E+05,      /* I =440 */
(PID.TID 0000.0001)                 3.057313676343125E+05,      /* I =441 */
(PID.TID 0000.0001)                 3.029720440125284E+05,      /* I =442 */
(PID.TID 0000.0001)                 3.003234072832736E+05,      /* I =443 */
(PID.TID 0000.0001)                 2.978958309396700E+05,      /* I =444 */
(PID.TID 0000.0001)                 2.957965112547295E+05,      /* I =445 */
(PID.TID 0000.0001)                 2.941233414269843E+05,      /* I =446 */
(PID.TID 0000.0001)                 2.929581318669225E+05,      /* I =447 */
(PID.TID 0000.0001)                 2.923599955312932E+05,      /* I =448 */
(PID.TID 0000.0001)                 2.647791839299727E+05,      /* I =449 */
(PID.TID 0000.0001)                 2.660295500376044E+05,      /* I =450 */
(PID.TID 0000.0001)                 2.684194260377608E+05,      /* I =451 */
(PID.TID 0000.0001)                 2.717530548984243E+05,      /* I =452 */
(PID.TID 0000.0001)                 2.757889673278915E+05,      /* I =453 */
(PID.TID 0000.0001)                 2.802768275386160E+05,      /* I =454 */
(PID.TID 0000.0001)                 2.849827251709129E+05,      /* I =455 */
(PID.TID 0000.0001)                 2.897017600496954E+05,      /* I =456 */
(PID.TID 0000.0001)                 2.942613213681001E+05,      /* I =457 */
(PID.TID 0000.0001)                 2.985192628631004E+05,      /* I =458 */
(PID.TID 0000.0001)                 3.023601215446892E+05,      /* I =459 */
(PID.TID 0000.0001)                 3.056911758960931E+05,      /* I =460 */
(PID.TID 0000.0001)                 3.084391345892176E+05,      /* I =461 */
(PID.TID 0000.0001)                 3.105476657588797E+05,      /* I =462 */
(PID.TID 0000.0001)                 3.119757031822313E+05,      /* I =463 */
(PID.TID 0000.0001)     2 @  3.126963716684348E+05,             /* I =464:465 */
(PID.TID 0000.0001)                 3.119757031822313E+05,      /* I =466 */
(PID.TID 0000.0001)                 3.105476657588797E+05,      /* I =467 */
(PID.TID 0000.0001)                 3.084391345892176E+05,      /* I =468 */
(PID.TID 0000.0001)                 3.056911758960931E+05,      /* I =469 */
(PID.TID 0000.0001)                 3.023601215446892E+05,      /* I =470 */
(PID.TID 0000.0001)                 2.985192628631004E+05,      /* I =471 */
(PID.TID 0000.0001)                 2.942613213681001E+05,      /* I =472 */
(PID.TID 0000.0001)                 2.897017600496954E+05,      /* I =473 */
(PID.TID 0000.0001)                 2.849827251709129E+05,      /* I =474 */
(PID.TID 0000.0001)                 2.802768275386160E+05,      /* I =475 */
(PID.TID 0000.0001)                 2.757889673278915E+05,      /* I =476 */
(PID.TID 0000.0001)                 2.717530548984243E+05,      /* I =477 */
(PID.TID 0000.0001)                 2.684194260377608E+05,      /* I =478 */
(PID.TID 0000.0001)                 2.660295500376044E+05,      /* I =479 */
(PID.TID 0000.0001)                 2.647791839299727E+05,      /* I =480 */
(PID.TID 0000.0001)                 2.135964483342134E+05,      /* I =481 */
(PID.TID 0000.0001)                 2.177261412410982E+05,      /* I =482 */
(PID.TID 0000.0001)                 2.249049036770762E+05,      /* I =483 */
(PID.TID 0000.0001)                 2.337608097814075E+05,      /* I =484 */
(PID.TID 0000.0001)                 2.432236510574240E+05,      /* I =485 */
(PID.TID 0000.0001)                 2.526238854469011E+05,      /* I =486 */
(PID.TID 0000.0001)                 2.615809138747491E+05,      /* I =487 */
(PID.TID 0000.0001)                 2.698839526285321E+05,      /* I =488 */
(PID.TID 0000.0001)                 2.774139821809750E+05,      /* I =489 */
(PID.TID 0000.0001)                 2.840999901950355E+05,      /* I =490 */
(PID.TID 0000.0001)                 2.898960374748506E+05,      /* I =491 */
(PID.TID 0000.0001)                 2.947697367015565E+05,      /* I =492 */
(PID.TID 0000.0001)                 2.986967441200144E+05,      /* I =493 */
(PID.TID 0000.0001)                 3.016583459871284E+05,      /* I =494 */
(PID.TID 0000.0001)                 3.036405817622399E+05,      /* I =495 */
(PID.TID 0000.0001)     2 @  3.046340673197290E+05,             /* I =496:497 */
(PID.TID 0000.0001)                 3.036405817622399E+05,      /* I =498 */
(PID.TID 0000.0001)                 3.016583459871284E+05,      /* I =499 */
(PID.TID 0000.0001)                 2.986967441200144E+05,      /* I =500 */
(PID.TID 0000.0001)                 2.947697367015565E+05,      /* I =501 */
(PID.TID 0000.0001)                 2.898960374748506E+05,      /* I =502 */
(PID.TID 0000.0001)                 2.840999901950355E+05,      /* I =503 */
(PID.TID 0000.0001)                 2.774139821809750E+05,      /* I =504 */
(PID.TID 0000.0001)                 2.698839526285321E+05,      /* I =505 */
(PID.TID 0000.0001)                 2.615809138747491E+05,      /* I =506 */
(PID.TID 0000.0001)                 2.526238854469011E+05,      /* I =507 */
(PID.TID 0000.0001)                 2.432236510574240E+05,      /* I =508 */
(PID.TID 0000.0001)                 2.337608097814075E+05,      /* I =509 */
(PID.TID 0000.0001)                 2.249049036770762E+05,      /* I =510 */
(PID.TID 0000.0001)                 2.177261412410982E+05,      /* I =511 */
(PID.TID 0000.0001)                 2.135964483342134E+05,      /* I =512 */
(PID.TID 0000.0001)                 1.114203141013064E+05,      /* I =513 */
(PID.TID 0000.0001)                 1.549545757850771E+05,      /* I =514 */
(PID.TID 0000.0001)                 1.829777599966776E+05,      /* I =515 */
(PID.TID 0000.0001)                 2.042717761866506E+05,      /* I =516 */
(PID.TID 0000.0001)                 2.216367828252819E+05,      /* I =517 */
(PID.TID 0000.0001)                 2.363029564123586E+05,      /* I =518 */
(PID.TID 0000.0001)                 2.489113743322025E+05,      /* I =519 */
(PID.TID 0000.0001)                 2.598293319150326E+05,      /* I =520 */
(PID.TID 0000.0001)                 2.692787333338535E+05,      /* I =521 */
(PID.TID 0000.0001)                 2.773972106720365E+05,      /* I =522 */
(PID.TID 0000.0001)                 2.842706922224557E+05,      /* I =523 */
(PID.TID 0000.0001)                 2.899523122489403E+05,      /* I =524 */
(PID.TID 0000.0001)                 2.944741346384699E+05,      /* I =525 */
(PID.TID 0000.0001)                 2.978547649292580E+05,      /* I =526 */
(PID.TID 0000.0001)                 3.001044073506459E+05,      /* I =527 */
(PID.TID 0000.0001)     2 @  3.012281885409289E+05,             /* I =528:529 */
(PID.TID 0000.0001)                 3.001044073506459E+05,      /* I =530 */
(PID.TID 0000.0001)                 2.978547649292580E+05,      /* I =531 */
(PID.TID 0000.0001)                 2.944741346384699E+05,      /* I =532 */
(PID.TID 0000.0001)                 2.899523122489403E+05,      /* I =533 */
(PID.TID 0000.0001)                 2.842706922224557E+05,      /* I =534 */
(PID.TID 0000.0001)                 2.773972106720365E+05,      /* I =535 */
(PID.TID 0000.0001)                 2.692787333338535E+05,      /* I =536 */
(PID.TID 0000.0001)                 2.598293319150326E+05,      /* I =537 */
(PID.TID 0000.0001)                 2.489113743322025E+05,      /* I =538 */
(PID.TID 0000.0001)                 2.363029564123586E+05,      /* I =539 */
(PID.TID 0000.0001)                 2.216367828252819E+05,      /* I =540 */
(PID.TID 0000.0001)                 2.042717761866506E+05,      /* I =541 */
(PID.TID 0000.0001)                 1.829777599966776E+05,      /* I =542 */
(PID.TID 0000.0001)                 1.549545757850771E+05,      /* I =543 */
(PID.TID 0000.0001)                 1.114203141013064E+05,      /* I =544 */
(PID.TID 0000.0001)                 2.135964483342134E+05,      /* I =545 */
(PID.TID 0000.0001)                 2.177261412410982E+05,      /* I =546 */
(PID.TID 0000.0001)                 2.249049036770762E+05,      /* I =547 */
(PID.TID 0000.0001)                 2.337608097814075E+05,      /* I =548 */
(PID.TID 0000.0001)                 2.432236510574240E+05,      /* I =549 */
(PID.TID 0000.0001)                 2.526238854469011E+05,      /* I =550 */
(PID.TID 0000.0001)                 2.615809138747491E+05,      /* I =551 */
(PID.TID 0000.0001)                 2.698839526285321E+05,      /* I =552 */
(PID.TID 0000.0001)                 2.774139821809750E+05,      /* I =553 */
(PID.TID 0000.0001)                 2.840999901950355E+05,      /* I =554 */
(PID.TID 0000.0001)                 2.898960374748506E+05,      /* I =555 */
(PID.TID 0000.0001)                 2.947697367015565E+05,      /* I =556 */
(PID.TID 0000.0001)                 2.986967441200144E+05,      /* I =557 */
(PID.TID 0000.0001)                 3.016583459871284E+05,      /* I =558 */
(PID.TID 0000.0001)                 3.036405817622399E+05,      /* I =559 */
(PID.TID 0000.0001)     2 @  3.046340673197290E+05,             /* I =560:561 */
(PID.TID 0000.0001)                 3.036405817622399E+05,      /* I =562 */
(PID.TID 0000.0001)                 3.016583459871284E+05,      /* I =563 */
(PID.TID 0000.0001)                 2.986967441200144E+05,      /* I =564 */
(PID.TID 0000.0001)                 2.947697367015565E+05,      /* I =565 */
(PID.TID 0000.0001)                 2.898960374748506E+05,      /* I =566 */
(PID.TID 0000.0001)                 2.840999901950355E+05,      /* I =567 */
(PID.TID 0000.0001)                 2.774139821809750E+05,      /* I =568 */
(PID.TID 0000.0001)                 2.698839526285321E+05,      /* I =569 */
(PID.TID 0000.0001)                 2.615809138747491E+05,      /* I =570 */
(PID.TID 0000.0001)                 2.526238854469011E+05,      /* I =571 */
(PID.TID 0000.0001)                 2.432236510574240E+05,      /* I =572 */
(PID.TID 0000.0001)                 2.337608097814075E+05,      /* I =573 */
(PID.TID 0000.0001)                 2.249049036770762E+05,      /* I =574 */
(PID.TID 0000.0001)                 2.177261412410982E+05,      /* I =575 */
(PID.TID 0000.0001)                 2.135964483342134E+05,      /* I =576 */
(PID.TID 0000.0001)                 2.647791839299727E+05,      /* I =577 */
(PID.TID 0000.0001)                 2.660295500376044E+05,      /* I =578 */
(PID.TID 0000.0001)                 2.684194260377608E+05,      /* I =579 */
(PID.TID 0000.0001)                 2.717530548984243E+05,      /* I =580 */
(PID.TID 0000.0001)                 2.757889673278915E+05,      /* I =581 */
(PID.TID 0000.0001)                 2.802768275386160E+05,      /* I =582 */
(PID.TID 0000.0001)                 2.849827251709129E+05,      /* I =583 */
(PID.TID 0000.0001)                 2.897017600496954E+05,      /* I =584 */
(PID.TID 0000.0001)                 2.942613213681001E+05,      /* I =585 */
(PID.TID 0000.0001)                 2.985192628631004E+05,      /* I =586 */
(PID.TID 0000.0001)                 3.023601215446892E+05,      /* I =587 */
(PID.TID 0000.0001)                 3.056911758960931E+05,      /* I =588 */
(PID.TID 0000.0001)                 3.084391345892176E+05,      /* I =589 */
(PID.TID 0000.0001)                 3.105476657588797E+05,      /* I =590 */
(PID.TID 0000.0001)                 3.119757031822313E+05,      /* I =591 */
(PID.TID 0000.0001)     2 @  3.126963716684348E+05,             /* I =592:593 */
(PID.TID 0000.0001)                 3.119757031822313E+05,      /* I =594 */
(PID.TID 0000.0001)                 3.105476657588797E+05,      /* I =595 */
(PID.TID 0000.0001)                 3.084391345892176E+05,      /* I =596 */
(PID.TID 0000.0001)                 3.056911758960931E+05,      /* I =597 */
(PID.TID 0000.0001)                 3.023601215446892E+05,      /* I =598 */
(PID.TID 0000.0001)                 2.985192628631004E+05,      /* I =599 */
(PID.TID 0000.0001)                 2.942613213681001E+05,      /* I =600 */
(PID.TID 0000.0001)                 2.897017600496954E+05,      /* I =601 */
(PID.TID 0000.0001)                 2.849827251709129E+05,      /* I =602 */
(PID.TID 0000.0001)                 2.802768275386160E+05,      /* I =603 */
(PID.TID 0000.0001)                 2.757889673278915E+05,      /* I =604 */
(PID.TID 0000.0001)                 2.717530548984243E+05,      /* I =605 */
(PID.TID 0000.0001)                 2.684194260377608E+05,      /* I =606 */
(PID.TID 0000.0001)                 2.660295500376044E+05,      /* I =607 */
(PID.TID 0000.0001)                 2.647791839299727E+05,      /* I =608 */
(PID.TID 0000.0001)                 2.923599955312932E+05,      /* I =609 */
(PID.TID 0000.0001)                 2.929581318669225E+05,      /* I =610 */
(PID.TID 0000.0001)                 2.941233414269843E+05,      /* I =611 */
(PID.TID 0000.0001)                 2.957965112547295E+05,      /* I =612 */
(PID.TID 0000.0001)                 2.978958309396700E+05,      /* I =613 */
(PID.TID 0000.0001)                 3.003234072832736E+05,      /* I =614 */
(PID.TID 0000.0001)                 3.029720440125284E+05,      /* I =615 */
(PID.TID 0000.0001)                 3.057313676343125E+05,      /* I =616 */
(PID.TID 0000.0001)                 3.084928732605239E+05,      /* I =617 */
(PID.TID 0000.0001)                 3.111538082049081E+05,      /* I =618 */
(PID.TID 0000.0001)                 3.136200274287855E+05,      /* I =619 */
(PID.TID 0000.0001)                 3.158080427002144E+05,      /* I =620 */
(PID.TID 0000.0001)                 3.176464858965941E+05,      /* I =621 */
(PID.TID 0000.0001)                 3.190771611966717E+05,      /* I =622 */
(PID.TID 0000.0001)                 3.200558043339545E+05,      /* I =623 */
(PID.TID 0000.0001)     2 @  3.205526180491640E+05,             /* I =624:625 */
(PID.TID 0000.0001)                 3.200558043339545E+05,      /* I =626 */
(PID.TID 0000.0001)                 3.190771611966717E+05,      /* I =627 */
(PID.TID 0000.0001)                 3.176464858965941E+05,      /* I =628 */
(PID.TID 0000.0001)                 3.158080427002144E+05,      /* I =629 */
(PID.TID 0000.0001)                 3.136200274287855E+05,      /* I =630 */
(PID.TID 0000.0001)                 3.111538082049081E+05,      /* I =631 */
(PID.TID 0000.0001)                 3.084928732605239E+05,      /* I =632 */
(PID.TID 0000.0001)                 3.057313676343125E+05,      /* I =633 */
(PID.TID 0000.0001)                 3.029720440125284E+05,      /* I =634 */
(PID.TID 0000.0001)                 3.003234072832736E+05,      /* I =635 */
(PID.TID 0000.0001)                 2.978958309396700E+05,      /* I =636 */
(PID.TID 0000.0001)                 2.957965112547295E+05,      /* I =637 */
(PID.TID 0000.0001)                 2.941233414269843E+05,      /* I =638 */
(PID.TID 0000.0001)                 2.929581318669225E+05,      /* I =639 */
(PID.TID 0000.0001)                 2.923599955312932E+05,      /* I =640 */
(PID.TID 0000.0001)                 3.013593857228136E+05,      /* I =641 */
(PID.TID 0000.0001)                 3.018056440786431E+05,      /* I =642 */
(PID.TID 0000.0001)                 3.026789946729719E+05,      /* I =643 */
(PID.TID 0000.0001)                 3.039422096857757E+05,      /* I =644 */
(PID.TID 0000.0001)                 3.055420860601236E+05,      /* I =645 */
(PID.TID 0000.0001)                 3.074122965148668E+05,      /* I =646 */
(PID.TID 0000.0001)                 3.094767373001940E+05,      /* I =647 */
(PID.TID 0000.0001)                 3.116531025121516E+05,      /* I =648 */
(PID.TID 0000.0001)                 3.138564503561421E+05,      /* I =649 */
(PID.TID 0000.0001)                 3.160025832904765E+05,      /* I =650 */
(PID.TID 0000.0001)                 3.180111244362097E+05,      /* I =651 */
(PID.TID 0000.0001)                 3.198082246942282E+05,      /* I =652 */
(PID.TID 0000.0001)                 3.213288727261454E+05,      /* I =653 */
(PID.TID 0000.0001)                 3.225188028454169E+05,      /* I =654 */
(PID.TID 0000.0001)                 3.233360067886980E+05,      /* I =655 */
(PID.TID 0000.0001)     2 @  3.237518583690030E+05,             /* I =656:657 */
(PID.TID 0000.0001)                 3.233360067886980E+05,      /* I =658 */
(PID.TID 0000.0001)                 3.225188028454169E+05,      /* I =659 */
(PID.TID 0000.0001)                 3.213288727261454E+05,      /* I =660 */
(PID.TID 0000.0001)                 3.198082246942282E+05,      /* I =661 */
(PID.TID 0000.0001)                 3.180111244362097E+05,      /* I =662 */
(PID.TID 0000.0001)                 3.160025832904765E+05,      /* I =663 */
(PID.TID 0000.0001)                 3.138564503561421E+05,      /* I =664 */
(PID.TID 0000.0001)                 3.116531025121516E+05,      /* I =665 */
(PID.TID 0000.0001)                 3.094767373001940E+05,      /* I =666 */
(PID.TID 0000.0001)                 3.074122965148668E+05,      /* I =667 */
(PID.TID 0000.0001)                 3.055420860601236E+05,      /* I =668 */
(PID.TID 0000.0001)                 3.039422096857757E+05,      /* I =669 */
(PID.TID 0000.0001)                 3.026789946729719E+05,      /* I =670 */
(PID.TID 0000.0001)                 3.018056440786431E+05,      /* I =671 */
(PID.TID 0000.0001)                 3.013593857228136E+05,      /* I =672 */
(PID.TID 0000.0001)                 2.923599955312932E+05,      /* I =673 */
(PID.TID 0000.0001)                 2.929581318669225E+05,      /* I =674 */
(PID.TID 0000.0001)                 2.941233414269843E+05,      /* I =675 */
(PID.TID 0000.0001)                 2.957965112547295E+05,      /* I =676 */
(PID.TID 0000.0001)                 2.978958309396700E+05,      /* I =677 */
(PID.TID 0000.0001)                 3.003234072832736E+05,      /* I =678 */
(PID.TID 0000.0001)                 3.029720440125284E+05,      /* I =679 */
(PID.TID 0000.0001)                 3.057313676343125E+05,      /* I =680 */
(PID.TID 0000.0001)                 3.084928732605239E+05,      /* I =681 */
(PID.TID 0000.0001)                 3.111538082049081E+05,      /* I =682 */
(PID.TID 0000.0001)                 3.136200274287855E+05,      /* I =683 */
(PID.TID 0000.0001)                 3.158080427002144E+05,      /* I =684 */
(PID.TID 0000.0001)                 3.176464858965941E+05,      /* I =685 */
(PID.TID 0000.0001)                 3.190771611966717E+05,      /* I =686 */
(PID.TID 0000.0001)                 3.200558043339545E+05,      /* I =687 */
(PID.TID 0000.0001)     2 @  3.205526180491640E+05,             /* I =688:689 */
(PID.TID 0000.0001)                 3.200558043339545E+05,      /* I =690 */
(PID.TID 0000.0001)                 3.190771611966717E+05,      /* I =691 */
(PID.TID 0000.0001)                 3.176464858965941E+05,      /* I =692 */
(PID.TID 0000.0001)                 3.158080427002144E+05,      /* I =693 */
(PID.TID 0000.0001)                 3.136200274287855E+05,      /* I =694 */
(PID.TID 0000.0001)                 3.111538082049081E+05,      /* I =695 */
(PID.TID 0000.0001)                 3.084928732605239E+05,      /* I =696 */
(PID.TID 0000.0001)                 3.057313676343125E+05,      /* I =697 */
(PID.TID 0000.0001)                 3.029720440125284E+05,      /* I =698 */
(PID.TID 0000.0001)                 3.003234072832736E+05,      /* I =699 */
(PID.TID 0000.0001)                 2.978958309396700E+05,      /* I =700 */
(PID.TID 0000.0001)                 2.957965112547295E+05,      /* I =701 */
(PID.TID 0000.0001)                 2.941233414269843E+05,      /* I =702 */
(PID.TID 0000.0001)                 2.929581318669225E+05,      /* I =703 */
(PID.TID 0000.0001)                 2.923599955312932E+05,      /* I =704 */
(PID.TID 0000.0001)                 2.647791839299727E+05,      /* I =705 */
(PID.TID 0000.0001)                 2.660295500376044E+05,      /* I =706 */
(PID.TID 0000.0001)                 2.684194260377608E+05,      /* I =707 */
(PID.TID 0000.0001)                 2.717530548984243E+05,      /* I =708 */
(PID.TID 0000.0001)                 2.757889673278915E+05,      /* I =709 */
(PID.TID 0000.0001)                 2.802768275386160E+05,      /* I =710 */
(PID.TID 0000.0001)                 2.849827251709129E+05,      /* I =711 */
(PID.TID 0000.0001)                 2.897017600496954E+05,      /* I =712 */
(PID.TID 0000.0001)                 2.942613213681001E+05,      /* I =713 */
(PID.TID 0000.0001)                 2.985192628631004E+05,      /* I =714 */
(PID.TID 0000.0001)                 3.023601215446892E+05,      /* I =715 */
(PID.TID 0000.0001)                 3.056911758960931E+05,      /* I =716 */
(PID.TID 0000.0001)                 3.084391345892176E+05,      /* I =717 */
(PID.TID 0000.0001)                 3.105476657588797E+05,      /* I =718 */
(PID.TID 0000.0001)                 3.119757031822313E+05,      /* I =719 */
(PID.TID 0000.0001)     2 @  3.126963716684348E+05,             /* I =720:721 */
(PID.TID 0000.0001)                 3.119757031822313E+05,      /* I =722 */
(PID.TID 0000.0001)                 3.105476657588797E+05,      /* I =723 */
(PID.TID 0000.0001)                 3.084391345892176E+05,      /* I =724 */
(PID.TID 0000.0001)                 3.056911758960931E+05,      /* I =725 */
(PID.TID 0000.0001)                 3.023601215446892E+05,      /* I =726 */
(PID.TID 0000.0001)                 2.985192628631004E+05,      /* I =727 */
(PID.TID 0000.0001)                 2.942613213681001E+05,      /* I =728 */
(PID.TID 0000.0001)                 2.897017600496954E+05,      /* I =729 */
(PID.TID 0000.0001)                 2.849827251709129E+05,      /* I =730 */
(PID.TID 0000.0001)                 2.802768275386160E+05,      /* I =731 */
(PID.TID 0000.0001)                 2.757889673278915E+05,      /* I =732 */
(PID.TID 0000.0001)                 2.717530548984243E+05,      /* I =733 */
(PID.TID 0000.0001)                 2.684194260377608E+05,      /* I =734 */
(PID.TID 0000.0001)                 2.660295500376044E+05,      /* I =735 */
(PID.TID 0000.0001)                 2.647791839299727E+05,      /* I =736 */
(PID.TID 0000.0001)                 2.135964483342134E+05,      /* I =737 */
(PID.TID 0000.0001)                 2.177261412410982E+05,      /* I =738 */
(PID.TID 0000.0001)                 2.249049036770762E+05,      /* I =739 */
(PID.TID 0000.0001)                 2.337608097814075E+05,      /* I =740 */
(PID.TID 0000.0001)                 2.432236510574240E+05,      /* I =741 */
(PID.TID 0000.0001)                 2.526238854469011E+05,      /* I =742 */
(PID.TID 0000.0001)                 2.615809138747491E+05,      /* I =743 */
(PID.TID 0000.0001)                 2.698839526285321E+05,      /* I =744 */
(PID.TID 0000.0001)                 2.774139821809750E+05,      /* I =745 */
(PID.TID 0000.0001)                 2.840999901950355E+05,      /* I =746 */
(PID.TID 0000.0001)                 2.898960374748506E+05,      /* I =747 */
(PID.TID 0000.0001)                 2.947697367015565E+05,      /* I =748 */
(PID.TID 0000.0001)                 2.986967441200144E+05,      /* I =749 */
(PID.TID 0000.0001)                 3.016583459871284E+05,      /* I =750 */
(PID.TID 0000.0001)                 3.036405817622399E+05,      /* I =751 */
(PID.TID 0000.0001)     2 @  3.046340673197290E+05,             /* I =752:753 */
(PID.TID 0000.0001)                 3.036405817622399E+05,      /* I =754 */
(PID.TID 0000.0001)                 3.016583459871284E+05,      /* I =755 */
(PID.TID 0000.0001)                 2.986967441200144E+05,      /* I =756 */
(PID.TID 0000.0001)                 2.947697367015565E+05,      /* I =757 */
(PID.TID 0000.0001)                 2.898960374748506E+05,      /* I =758 */
(PID.TID 0000.0001)                 2.840999901950355E+05,      /* I =759 */
(PID.TID 0000.0001)                 2.774139821809750E+05,      /* I =760 */
(PID.TID 0000.0001)                 2.698839526285321E+05,      /* I =761 */
(PID.TID 0000.0001)                 2.615809138747491E+05,      /* I =762 */
(PID.TID 0000.0001)                 2.526238854469011E+05,      /* I =763 */
(PID.TID 0000.0001)                 2.432236510574240E+05,      /* I =764 */
(PID.TID 0000.0001)                 2.337608097814075E+05,      /* I =765 */
(PID.TID 0000.0001)                 2.249049036770762E+05,      /* I =766 */
(PID.TID 0000.0001)                 2.177261412410982E+05,      /* I =767 */
(PID.TID 0000.0001)                 2.135964483342134E+05,      /* I =768 */
(PID.TID 0000.0001)                 1.114203141013064E+05,      /* I =769 */
(PID.TID 0000.0001)                 1.549545757850771E+05,      /* I =770 */
(PID.TID 0000.0001)                 1.829777599966776E+05,      /* I =771 */
(PID.TID 0000.0001)                 2.042717761866506E+05,      /* I =772 */
(PID.TID 0000.0001)                 2.216367828252819E+05,      /* I =773 */
(PID.TID 0000.0001)                 2.363029564123586E+05,      /* I =774 */
(PID.TID 0000.0001)                 2.489113743322025E+05,      /* I =775 */
(PID.TID 0000.0001)                 2.598293319150326E+05,      /* I =776 */
(PID.TID 0000.0001)                 2.692787333338535E+05,      /* I =777 */
(PID.TID 0000.0001)                 2.773972106720365E+05,      /* I =778 */
(PID.TID 0000.0001)                 2.842706922224557E+05,      /* I =779 */
(PID.TID 0000.0001)                 2.899523122489403E+05,      /* I =780 */
(PID.TID 0000.0001)                 2.944741346384699E+05,      /* I =781 */
(PID.TID 0000.0001)                 2.978547649292580E+05,      /* I =782 */
(PID.TID 0000.0001)                 3.001044073506459E+05,      /* I =783 */
(PID.TID 0000.0001)     2 @  3.012281885409289E+05,             /* I =784:785 */
(PID.TID 0000.0001)                 3.001044073506459E+05,      /* I =786 */
(PID.TID 0000.0001)                 2.978547649292580E+05,      /* I =787 */
(PID.TID 0000.0001)                 2.944741346384699E+05,      /* I =788 */
(PID.TID 0000.0001)                 2.899523122489403E+05,      /* I =789 */
(PID.TID 0000.0001)                 2.842706922224557E+05,      /* I =790 */
(PID.TID 0000.0001)                 2.773972106720365E+05,      /* I =791 */
(PID.TID 0000.0001)                 2.692787333338535E+05,      /* I =792 */
(PID.TID 0000.0001)                 2.598293319150326E+05,      /* I =793 */
(PID.TID 0000.0001)                 2.489113743322025E+05,      /* I =794 */
(PID.TID 0000.0001)                 2.363029564123586E+05,      /* I =795 */
(PID.TID 0000.0001)                 2.216367828252819E+05,      /* I =796 */
(PID.TID 0000.0001)                 2.042717761866506E+05,      /* I =797 */
(PID.TID 0000.0001)                 1.829777599966776E+05,      /* I =798 */
(PID.TID 0000.0001)                 1.549545757850771E+05,      /* I =799 */
(PID.TID 0000.0001)                 1.114203141013064E+05,      /* I =800 */
(PID.TID 0000.0001)                 2.135964483342134E+05,      /* I =801 */
(PID.TID 0000.0001)                 2.177261412410982E+05,      /* I =802 */
(PID.TID 0000.0001)                 2.249049036770762E+05,      /* I =803 */
(PID.TID 0000.0001)                 2.337608097814075E+05,      /* I =804 */
(PID.TID 0000.0001)                 2.432236510574240E+05,      /* I =805 */
(PID.TID 0000.0001)                 2.526238854469011E+05,      /* I =806 */
(PID.TID 0000.0001)                 2.615809138747491E+05,      /* I =807 */
(PID.TID 0000.0001)                 2.698839526285321E+05,      /* I =808 */
(PID.TID 0000.0001)                 2.774139821809750E+05,      /* I =809 */
(PID.TID 0000.0001)                 2.840999901950355E+05,      /* I =810 */
(PID.TID 0000.0001)                 2.898960374748506E+05,      /* I =811 */
(PID.TID 0000.0001)                 2.947697367015565E+05,      /* I =812 */
(PID.TID 0000.0001)                 2.986967441200144E+05,      /* I =813 */
(PID.TID 0000.0001)                 3.016583459871284E+05,      /* I =814 */
(PID.TID 0000.0001)                 3.036405817622399E+05,      /* I =815 */
(PID.TID 0000.0001)     2 @  3.046340673197290E+05,             /* I =816:817 */
(PID.TID 0000.0001)                 3.036405817622399E+05,      /* I =818 */
(PID.TID 0000.0001)                 3.016583459871284E+05,      /* I =819 */
(PID.TID 0000.0001)                 2.986967441200144E+05,      /* I =820 */
(PID.TID 0000.0001)                 2.947697367015565E+05,      /* I =821 */
(PID.TID 0000.0001)                 2.898960374748506E+05,      /* I =822 */
(PID.TID 0000.0001)                 2.840999901950355E+05,      /* I =823 */
(PID.TID 0000.0001)                 2.774139821809750E+05,      /* I =824 */
(PID.TID 0000.0001)                 2.698839526285321E+05,      /* I =825 */
(PID.TID 0000.0001)                 2.615809138747491E+05,      /* I =826 */
(PID.TID 0000.0001)                 2.526238854469011E+05,      /* I =827 */
(PID.TID 0000.0001)                 2.432236510574240E+05,      /* I =828 */
(PID.TID 0000.0001)                 2.337608097814075E+05,      /* I =829 */
(PID.TID 0000.0001)                 2.249049036770762E+05,      /* I =830 */
(PID.TID 0000.0001)                 2.177261412410982E+05,      /* I =831 */
(PID.TID 0000.0001)                 2.135964483342134E+05,      /* I =832 */
(PID.TID 0000.0001)                 2.647791839299727E+05,      /* I =833 */
(PID.TID 0000.0001)                 2.660295500376044E+05,      /* I =834 */
(PID.TID 0000.0001)                 2.684194260377608E+05,      /* I =835 */
(PID.TID 0000.0001)                 2.717530548984243E+05,      /* I =836 */
(PID.TID 0000.0001)                 2.757889673278915E+05,      /* I =837 */
(PID.TID 0000.0001)                 2.802768275386160E+05,      /* I =838 */
(PID.TID 0000.0001)                 2.849827251709129E+05,      /* I =839 */
(PID.TID 0000.0001)                 2.897017600496954E+05,      /* I =840 */
(PID.TID 0000.0001)                 2.942613213681001E+05,      /* I =841 */
(PID.TID 0000.0001)                 2.985192628631004E+05,      /* I =842 */
(PID.TID 0000.0001)                 3.023601215446892E+05,      /* I =843 */
(PID.TID 0000.0001)                 3.056911758960931E+05,      /* I =844 */
(PID.TID 0000.0001)                 3.084391345892176E+05,      /* I =845 */
(PID.TID 0000.0001)                 3.105476657588797E+05,      /* I =846 */
(PID.TID 0000.0001)                 3.119757031822313E+05,      /* I =847 */
(PID.TID 0000.0001)     2 @  3.126963716684348E+05,             /* I =848:849 */
(PID.TID 0000.0001)                 3.119757031822313E+05,      /* I =850 */
(PID.TID 0000.0001)                 3.105476657588797E+05,      /* I =851 */
(PID.TID 0000.0001)                 3.084391345892176E+05,      /* I =852 */
(PID.TID 0000.0001)                 3.056911758960931E+05,      /* I =853 */
(PID.TID 0000.0001)                 3.023601215446892E+05,      /* I =854 */
(PID.TID 0000.0001)                 2.985192628631004E+05,      /* I =855 */
(PID.TID 0000.0001)                 2.942613213681001E+05,      /* I =856 */
(PID.TID 0000.0001)                 2.897017600496954E+05,      /* I =857 */
(PID.TID 0000.0001)                 2.849827251709129E+05,      /* I =858 */
(PID.TID 0000.0001)                 2.802768275386160E+05,      /* I =859 */
(PID.TID 0000.0001)                 2.757889673278915E+05,      /* I =860 */
(PID.TID 0000.0001)                 2.717530548984243E+05,      /* I =861 */
(PID.TID 0000.0001)                 2.684194260377608E+05,      /* I =862 */
(PID.TID 0000.0001)                 2.660295500376044E+05,      /* I =863 */
(PID.TID 0000.0001)                 2.647791839299727E+05,      /* I =864 */
(PID.TID 0000.0001)                 2.923599955312932E+05,      /* I =865 */
(PID.TID 0000.0001)                 2.929581318669225E+05,      /* I =866 */
(PID.TID 0000.0001)                 2.941233414269843E+05,      /* I =867 */
(PID.TID 0000.0001)                 2.957965112547295E+05,      /* I =868 */
(PID.TID 0000.0001)                 2.978958309396700E+05,      /* I =869 */
(PID.TID 0000.0001)                 3.003234072832736E+05,      /* I =870 */
(PID.TID 0000.0001)                 3.029720440125284E+05,      /* I =871 */
(PID.TID 0000.0001)                 3.057313676343125E+05,      /* I =872 */
(PID.TID 0000.0001)                 3.084928732605239E+05,      /* I =873 */
(PID.TID 0000.0001)                 3.111538082049081E+05,      /* I =874 */
(PID.TID 0000.0001)                 3.136200274287855E+05,      /* I =875 */
(PID.TID 0000.0001)                 3.158080427002144E+05,      /* I =876 */
(PID.TID 0000.0001)                 3.176464858965941E+05,      /* I =877 */
(PID.TID 0000.0001)                 3.190771611966717E+05,      /* I =878 */
(PID.TID 0000.0001)                 3.200558043339545E+05,      /* I =879 */
(PID.TID 0000.0001)     2 @  3.205526180491640E+05,             /* I =880:881 */
(PID.TID 0000.0001)                 3.200558043339545E+05,      /* I =882 */
(PID.TID 0000.0001)                 3.190771611966717E+05,      /* I =883 */
(PID.TID 0000.0001)                 3.176464858965941E+05,      /* I =884 */
(PID.TID 0000.0001)                 3.158080427002144E+05,      /* I =885 */
(PID.TID 0000.0001)                 3.136200274287855E+05,      /* I =886 */
(PID.TID 0000.0001)                 3.111538082049081E+05,      /* I =887 */
(PID.TID 0000.0001)                 3.084928732605239E+05,      /* I =888 */
(PID.TID 0000.0001)                 3.057313676343125E+05,      /* I =889 */
(PID.TID 0000.0001)                 3.029720440125284E+05,      /* I =890 */
(PID.TID 0000.0001)                 3.003234072832736E+05,      /* I =891 */
(PID.TID 0000.0001)                 2.978958309396700E+05,      /* I =892 */
(PID.TID 0000.0001)                 2.957965112547295E+05,      /* I =893 */
(PID.TID 0000.0001)                 2.941233414269843E+05,      /* I =894 */
(PID.TID 0000.0001)                 2.929581318669225E+05,      /* I =895 */
(PID.TID 0000.0001)                 2.923599955312932E+05,      /* I =896 */
(PID.TID 0000.0001)                 3.013593857228136E+05,      /* I =897 */
(PID.TID 0000.0001)                 3.018056440786431E+05,      /* I =898 */
(PID.TID 0000.0001)                 3.026789946729719E+05,      /* I =899 */
(PID.TID 0000.0001)                 3.039422096857757E+05,      /* I =900 */
(PID.TID 0000.0001)                 3.055420860601236E+05,      /* I =901 */
(PID.TID 0000.0001)                 3.074122965148668E+05,      /* I =902 */
(PID.TID 0000.0001)                 3.094767373001940E+05,      /* I =903 */
(PID.TID 0000.0001)                 3.116531025121516E+05,      /* I =904 */
(PID.TID 0000.0001)                 3.138564503561421E+05,      /* I =905 */
(PID.TID 0000.0001)                 3.160025832904765E+05,      /* I =906 */
(PID.TID 0000.0001)                 3.180111244362097E+05,      /* I =907 */
(PID.TID 0000.0001)                 3.198082246942282E+05,      /* I =908 */
(PID.TID 0000.0001)                 3.213288727261454E+05,      /* I =909 */
(PID.TID 0000.0001)                 3.225188028454169E+05,      /* I =910 */
(PID.TID 0000.0001)                 3.233360067886980E+05,      /* I =911 */
(PID.TID 0000.0001)     2 @  3.237518583690030E+05,             /* I =912:913 */
(PID.TID 0000.0001)                 3.233360067886980E+05,      /* I =914 */
(PID.TID 0000.0001)                 3.225188028454169E+05,      /* I =915 */
(PID.TID 0000.0001)                 3.213288727261454E+05,      /* I =916 */
(PID.TID 0000.0001)                 3.198082246942282E+05,      /* I =917 */
(PID.TID 0000.0001)                 3.180111244362097E+05,      /* I =918 */
(PID.TID 0000.0001)                 3.160025832904765E+05,      /* I =919 */
(PID.TID 0000.0001)                 3.138564503561421E+05,      /* I =920 */
(PID.TID 0000.0001)                 3.116531025121516E+05,      /* I =921 */
(PID.TID 0000.0001)                 3.094767373001940E+05,      /* I =922 */
(PID.TID 0000.0001)                 3.074122965148668E+05,      /* I =923 */
(PID.TID 0000.0001)                 3.055420860601236E+05,      /* I =924 */
(PID.TID 0000.0001)                 3.039422096857757E+05,      /* I =925 */
(PID.TID 0000.0001)                 3.026789946729719E+05,      /* I =926 */
(PID.TID 0000.0001)                 3.018056440786431E+05,      /* I =927 */
(PID.TID 0000.0001)                 3.013593857228136E+05,      /* I =928 */
(PID.TID 0000.0001)                 2.923599955312932E+05,      /* I =929 */
(PID.TID 0000.0001)                 2.929581318669225E+05,      /* I =930 */
(PID.TID 0000.0001)                 2.941233414269843E+05,      /* I =931 */
(PID.TID 0000.0001)                 2.957965112547295E+05,      /* I =932 */
(PID.TID 0000.0001)                 2.978958309396700E+05,      /* I =933 */
(PID.TID 0000.0001)                 3.003234072832736E+05,      /* I =934 */
(PID.TID 0000.0001)                 3.029720440125284E+05,      /* I =935 */
(PID.TID 0000.0001)                 3.057313676343125E+05,      /* I =936 */
(PID.TID 0000.0001)                 3.084928732605239E+05,      /* I =937 */
(PID.TID 0000.0001)                 3.111538082049081E+05,      /* I =938 */
(PID.TID 0000.0001)                 3.136200274287855E+05,      /* I =939 */
(PID.TID 0000.0001)                 3.158080427002144E+05,      /* I =940 */
(PID.TID 0000.0001)                 3.176464858965941E+05,      /* I =941 */
(PID.TID 0000.0001)                 3.190771611966717E+05,      /* I =942 */
(PID.TID 0000.0001)                 3.200558043339545E+05,      /* I =943 */
(PID.TID 0000.0001)     2 @  3.205526180491640E+05,             /* I =944:945 */
(PID.TID 0000.0001)                 3.200558043339545E+05,      /* I =946 */
(PID.TID 0000.0001)                 3.190771611966717E+05,      /* I =947 */
(PID.TID 0000.0001)                 3.176464858965941E+05,      /* I =948 */
(PID.TID 0000.0001)                 3.158080427002144E+05,      /* I =949 */
(PID.TID 0000.0001)                 3.136200274287855E+05,      /* I =950 */
(PID.TID 0000.0001)                 3.111538082049081E+05,      /* I =951 */
(PID.TID 0000.0001)                 3.084928732605239E+05,      /* I =952 */
(PID.TID 0000.0001)                 3.057313676343125E+05,      /* I =953 */
(PID.TID 0000.0001)                 3.029720440125284E+05,      /* I =954 */
(PID.TID 0000.0001)                 3.003234072832736E+05,      /* I =955 */
(PID.TID 0000.0001)                 2.978958309396700E+05,      /* I =956 */
(PID.TID 0000.0001)                 2.957965112547295E+05,      /* I =957 */
(PID.TID 0000.0001)                 2.941233414269843E+05,      /* I =958 */
(PID.TID 0000.0001)                 2.929581318669225E+05,      /* I =959 */
(PID.TID 0000.0001)                 2.923599955312932E+05,      /* I =960 */
(PID.TID 0000.0001)                 2.647791839299727E+05,      /* I =961 */
(PID.TID 0000.0001)                 2.660295500376044E+05,      /* I =962 */
(PID.TID 0000.0001)                 2.684194260377608E+05,      /* I =963 */
(PID.TID 0000.0001)                 2.717530548984243E+05,      /* I =964 */
(PID.TID 0000.0001)                 2.757889673278915E+05,      /* I =965 */
(PID.TID 0000.0001)                 2.802768275386160E+05,      /* I =966 */
(PID.TID 0000.0001)                 2.849827251709129E+05,      /* I =967 */
(PID.TID 0000.0001)                 2.897017600496954E+05,      /* I =968 */
(PID.TID 0000.0001)                 2.942613213681001E+05,      /* I =969 */
(PID.TID 0000.0001)                 2.985192628631004E+05,      /* I =970 */
(PID.TID 0000.0001)                 3.023601215446892E+05,      /* I =971 */
(PID.TID 0000.0001)                 3.056911758960931E+05,      /* I =972 */
(PID.TID 0000.0001)                 3.084391345892176E+05,      /* I =973 */
(PID.TID 0000.0001)                 3.105476657588797E+05,      /* I =974 */
(PID.TID 0000.0001)                 3.119757031822313E+05,      /* I =975 */
(PID.TID 0000.0001)     2 @  3.126963716684348E+05,             /* I =976:977 */
(PID.TID 0000.0001)                 3.119757031822313E+05,      /* I =978 */
(PID.TID 0000.0001)                 3.105476657588797E+05,      /* I =979 */
(PID.TID 0000.0001)                 3.084391345892176E+05,      /* I =980 */
(PID.TID 0000.0001)                 3.056911758960931E+05,      /* I =981 */
(PID.TID 0000.0001)                 3.023601215446892E+05,      /* I =982 */
(PID.TID 0000.0001)                 2.985192628631004E+05,      /* I =983 */
(PID.TID 0000.0001)                 2.942613213681001E+05,      /* I =984 */
(PID.TID 0000.0001)                 2.897017600496954E+05,      /* I =985 */
(PID.TID 0000.0001)                 2.849827251709129E+05,      /* I =986 */
(PID.TID 0000.0001)                 2.802768275386160E+05,      /* I =987 */
(PID.TID 0000.0001)                 2.757889673278915E+05,      /* I =988 */
(PID.TID 0000.0001)                 2.717530548984243E+05,      /* I =989 */
(PID.TID 0000.0001)                 2.684194260377608E+05,      /* I =990 */
(PID.TID 0000.0001)                 2.660295500376044E+05,      /* I =991 */
(PID.TID 0000.0001)                 2.647791839299727E+05,      /* I =992 */
(PID.TID 0000.0001)                 2.135964483342134E+05,      /* I =993 */
(PID.TID 0000.0001)                 2.177261412410982E+05,      /* I =994 */
(PID.TID 0000.0001)                 2.249049036770762E+05,      /* I =995 */
(PID.TID 0000.0001)                 2.337608097814075E+05,      /* I =996 */
(PID.TID 0000.0001)                 2.432236510574240E+05,      /* I =997 */
(PID.TID 0000.0001)                 2.526238854469011E+05,      /* I =998 */
(PID.TID 0000.0001)                 2.615809138747491E+05,      /* I =999 */
(PID.TID 0000.0001)                 2.698839526285321E+05,      /* I =*** */
(PID.TID 0000.0001)                 2.774139821809750E+05,      /* I =*** */
(PID.TID 0000.0001)                 2.840999901950355E+05,      /* I =*** */
(PID.TID 0000.0001)                 2.898960374748506E+05,      /* I =*** */
(PID.TID 0000.0001)                 2.947697367015565E+05,      /* I =*** */
(PID.TID 0000.0001)                 2.986967441200144E+05,      /* I =*** */
(PID.TID 0000.0001)                 3.016583459871284E+05,      /* I =*** */
(PID.TID 0000.0001)                 3.036405817622399E+05,      /* I =*** */
(PID.TID 0000.0001)     2 @  3.046340673197290E+05,             /* I =***:*** */
(PID.TID 0000.0001)                 3.036405817622399E+05,      /* I =*** */
(PID.TID 0000.0001)                 3.016583459871284E+05,      /* I =*** */
(PID.TID 0000.0001)                 2.986967441200144E+05,      /* I =*** */
(PID.TID 0000.0001)                 2.947697367015565E+05,      /* I =*** */
(PID.TID 0000.0001)                 2.898960374748506E+05,      /* I =*** */
(PID.TID 0000.0001)                 2.840999901950355E+05,      /* I =*** */
(PID.TID 0000.0001)                 2.774139821809750E+05,      /* I =*** */
(PID.TID 0000.0001)                 2.698839526285321E+05,      /* I =*** */
(PID.TID 0000.0001)                 2.615809138747491E+05,      /* I =*** */
(PID.TID 0000.0001)                 2.526238854469011E+05,      /* I =*** */
(PID.TID 0000.0001)                 2.432236510574240E+05,      /* I =*** */
(PID.TID 0000.0001)                 2.337608097814075E+05,      /* I =*** */
(PID.TID 0000.0001)                 2.249049036770762E+05,      /* I =*** */
(PID.TID 0000.0001)                 2.177261412410982E+05,      /* I =*** */
(PID.TID 0000.0001)                 2.135964483342134E+05,      /* I =*** */
(PID.TID 0000.0001)                 1.114203141013064E+05,      /* I =*** */
(PID.TID 0000.0001)                 1.549545757850771E+05,      /* I =*** */
(PID.TID 0000.0001)                 1.829777599966776E+05,      /* I =*** */
(PID.TID 0000.0001)                 2.042717761866506E+05,      /* I =*** */
(PID.TID 0000.0001)                 2.216367828252819E+05,      /* I =*** */
(PID.TID 0000.0001)                 2.363029564123586E+05,      /* I =*** */
(PID.TID 0000.0001)                 2.489113743322025E+05,      /* I =*** */
(PID.TID 0000.0001)                 2.598293319150326E+05,      /* I =*** */
(PID.TID 0000.0001)                 2.692787333338535E+05,      /* I =*** */
(PID.TID 0000.0001)                 2.773972106720365E+05,      /* I =*** */
(PID.TID 0000.0001)                 2.842706922224557E+05,      /* I =*** */
(PID.TID 0000.0001)                 2.899523122489403E+05,      /* I =*** */
(PID.TID 0000.0001)                 2.944741346384699E+05,      /* I =*** */
(PID.TID 0000.0001)                 2.978547649292580E+05,      /* I =*** */
(PID.TID 0000.0001)                 3.001044073506459E+05,      /* I =*** */
(PID.TID 0000.0001)     2 @  3.012281885409289E+05,             /* I =***:*** */
(PID.TID 0000.0001)                 3.001044073506459E+05,      /* I =*** */
(PID.TID 0000.0001)                 2.978547649292580E+05,      /* I =*** */
(PID.TID 0000.0001)                 2.944741346384699E+05,      /* I =*** */
(PID.TID 0000.0001)                 2.899523122489403E+05,      /* I =*** */
(PID.TID 0000.0001)                 2.842706922224557E+05,      /* I =*** */
(PID.TID 0000.0001)                 2.773972106720365E+05,      /* I =*** */
(PID.TID 0000.0001)                 2.692787333338535E+05,      /* I =*** */
(PID.TID 0000.0001)                 2.598293319150326E+05,      /* I =*** */
(PID.TID 0000.0001)                 2.489113743322025E+05,      /* I =*** */
(PID.TID 0000.0001)                 2.363029564123586E+05,      /* I =*** */
(PID.TID 0000.0001)                 2.216367828252819E+05,      /* I =*** */
(PID.TID 0000.0001)                 2.042717761866506E+05,      /* I =*** */
(PID.TID 0000.0001)                 1.829777599966776E+05,      /* I =*** */
(PID.TID 0000.0001)                 1.549545757850771E+05,      /* I =*** */
(PID.TID 0000.0001)                 1.114203141013064E+05,      /* I =*** */
(PID.TID 0000.0001)                 2.135964483342134E+05,      /* I =*** */
(PID.TID 0000.0001)                 2.177261412410982E+05,      /* I =*** */
(PID.TID 0000.0001)                 2.249049036770762E+05,      /* I =*** */
(PID.TID 0000.0001)                 2.337608097814075E+05,      /* I =*** */
(PID.TID 0000.0001)                 2.432236510574240E+05,      /* I =*** */
(PID.TID 0000.0001)                 2.526238854469011E+05,      /* I =*** */
(PID.TID 0000.0001)                 2.615809138747491E+05,      /* I =*** */
(PID.TID 0000.0001)                 2.698839526285321E+05,      /* I =*** */
(PID.TID 0000.0001)                 2.774139821809750E+05,      /* I =*** */
(PID.TID 0000.0001)                 2.840999901950355E+05,      /* I =*** */
(PID.TID 0000.0001)                 2.898960374748506E+05,      /* I =*** */
(PID.TID 0000.0001)                 2.947697367015565E+05,      /* I =*** */
(PID.TID 0000.0001)                 2.986967441200144E+05,      /* I =*** */
(PID.TID 0000.0001)                 3.016583459871284E+05,      /* I =*** */
(PID.TID 0000.0001)                 3.036405817622399E+05,      /* I =*** */
(PID.TID 0000.0001)     2 @  3.046340673197290E+05,             /* I =***:*** */
(PID.TID 0000.0001)                 3.036405817622399E+05,      /* I =*** */
(PID.TID 0000.0001)                 3.016583459871284E+05,      /* I =*** */
(PID.TID 0000.0001)                 2.986967441200144E+05,      /* I =*** */
(PID.TID 0000.0001)                 2.947697367015565E+05,      /* I =*** */
(PID.TID 0000.0001)                 2.898960374748506E+05,      /* I =*** */
(PID.TID 0000.0001)                 2.840999901950355E+05,      /* I =*** */
(PID.TID 0000.0001)                 2.774139821809750E+05,      /* I =*** */
(PID.TID 0000.0001)                 2.698839526285321E+05,      /* I =*** */
(PID.TID 0000.0001)                 2.615809138747491E+05,      /* I =*** */
(PID.TID 0000.0001)                 2.526238854469011E+05,      /* I =*** */
(PID.TID 0000.0001)                 2.432236510574240E+05,      /* I =*** */
(PID.TID 0000.0001)                 2.337608097814075E+05,      /* I =*** */
(PID.TID 0000.0001)                 2.249049036770762E+05,      /* I =*** */
(PID.TID 0000.0001)                 2.177261412410982E+05,      /* I =*** */
(PID.TID 0000.0001)                 2.135964483342134E+05,      /* I =*** */
(PID.TID 0000.0001)                 2.647791839299727E+05,      /* I =*** */
(PID.TID 0000.0001)                 2.660295500376044E+05,      /* I =*** */
(PID.TID 0000.0001)                 2.684194260377608E+05,      /* I =*** */
(PID.TID 0000.0001)                 2.717530548984243E+05,      /* I =*** */
(PID.TID 0000.0001)                 2.757889673278915E+05,      /* I =*** */
(PID.TID 0000.0001)                 2.802768275386160E+05,      /* I =*** */
(PID.TID 0000.0001)                 2.849827251709129E+05,      /* I =*** */
(PID.TID 0000.0001)                 2.897017600496954E+05,      /* I =*** */
(PID.TID 0000.0001)                 2.942613213681001E+05,      /* I =*** */
(PID.TID 0000.0001)                 2.985192628631004E+05,      /* I =*** */
(PID.TID 0000.0001)                 3.023601215446892E+05,      /* I =*** */
(PID.TID 0000.0001)                 3.056911758960931E+05,      /* I =*** */
(PID.TID 0000.0001)                 3.084391345892176E+05,      /* I =*** */
(PID.TID 0000.0001)                 3.105476657588797E+05,      /* I =*** */
(PID.TID 0000.0001)                 3.119757031822313E+05,      /* I =*** */
(PID.TID 0000.0001)     2 @  3.126963716684348E+05,             /* I =***:*** */
(PID.TID 0000.0001)                 3.119757031822313E+05,      /* I =*** */
(PID.TID 0000.0001)                 3.105476657588797E+05,      /* I =*** */
(PID.TID 0000.0001)                 3.084391345892176E+05,      /* I =*** */
(PID.TID 0000.0001)                 3.056911758960931E+05,      /* I =*** */
(PID.TID 0000.0001)                 3.023601215446892E+05,      /* I =*** */
(PID.TID 0000.0001)                 2.985192628631004E+05,      /* I =*** */
(PID.TID 0000.0001)                 2.942613213681001E+05,      /* I =*** */
(PID.TID 0000.0001)                 2.897017600496954E+05,      /* I =*** */
(PID.TID 0000.0001)                 2.849827251709129E+05,      /* I =*** */
(PID.TID 0000.0001)                 2.802768275386160E+05,      /* I =*** */
(PID.TID 0000.0001)                 2.757889673278915E+05,      /* I =*** */
(PID.TID 0000.0001)                 2.717530548984243E+05,      /* I =*** */
(PID.TID 0000.0001)                 2.684194260377608E+05,      /* I =*** */
(PID.TID 0000.0001)                 2.660295500376044E+05,      /* I =*** */
(PID.TID 0000.0001)                 2.647791839299727E+05,      /* I =*** */
(PID.TID 0000.0001)                 2.923599955312932E+05,      /* I =*** */
(PID.TID 0000.0001)                 2.929581318669225E+05,      /* I =*** */
(PID.TID 0000.0001)                 2.941233414269843E+05,      /* I =*** */
(PID.TID 0000.0001)                 2.957965112547295E+05,      /* I =*** */
(PID.TID 0000.0001)                 2.978958309396700E+05,      /* I =*** */
(PID.TID 0000.0001)                 3.003234072832736E+05,      /* I =*** */
(PID.TID 0000.0001)                 3.029720440125284E+05,      /* I =*** */
(PID.TID 0000.0001)                 3.057313676343125E+05,      /* I =*** */
(PID.TID 0000.0001)                 3.084928732605239E+05,      /* I =*** */
(PID.TID 0000.0001)                 3.111538082049081E+05,      /* I =*** */
(PID.TID 0000.0001)                 3.136200274287855E+05,      /* I =*** */
(PID.TID 0000.0001)                 3.158080427002144E+05,      /* I =*** */
(PID.TID 0000.0001)                 3.176464858965941E+05,      /* I =*** */
(PID.TID 0000.0001)                 3.190771611966717E+05,      /* I =*** */
(PID.TID 0000.0001)                 3.200558043339545E+05,      /* I =*** */
(PID.TID 0000.0001)     2 @  3.205526180491640E+05,             /* I =***:*** */
(PID.TID 0000.0001)                 3.200558043339545E+05,      /* I =*** */
(PID.TID 0000.0001)                 3.190771611966717E+05,      /* I =*** */
(PID.TID 0000.0001)                 3.176464858965941E+05,      /* I =*** */
(PID.TID 0000.0001)                 3.158080427002144E+05,      /* I =*** */
(PID.TID 0000.0001)                 3.136200274287855E+05,      /* I =*** */
(PID.TID 0000.0001)                 3.111538082049081E+05,      /* I =*** */
(PID.TID 0000.0001)                 3.084928732605239E+05,      /* I =*** */
(PID.TID 0000.0001)                 3.057313676343125E+05,      /* I =*** */
(PID.TID 0000.0001)                 3.029720440125284E+05,      /* I =*** */
(PID.TID 0000.0001)                 3.003234072832736E+05,      /* I =*** */
(PID.TID 0000.0001)                 2.978958309396700E+05,      /* I =*** */
(PID.TID 0000.0001)                 2.957965112547295E+05,      /* I =*** */
(PID.TID 0000.0001)                 2.941233414269843E+05,      /* I =*** */
(PID.TID 0000.0001)                 2.929581318669225E+05,      /* I =*** */
(PID.TID 0000.0001)                 2.923599955312932E+05,      /* I =*** */
(PID.TID 0000.0001)                 3.013593857228136E+05,      /* I =*** */
(PID.TID 0000.0001)                 3.018056440786431E+05,      /* I =*** */
(PID.TID 0000.0001)                 3.026789946729719E+05,      /* I =*** */
(PID.TID 0000.0001)                 3.039422096857757E+05,      /* I =*** */
(PID.TID 0000.0001)                 3.055420860601236E+05,      /* I =*** */
(PID.TID 0000.0001)                 3.074122965148668E+05,      /* I =*** */
(PID.TID 0000.0001)                 3.094767373001940E+05,      /* I =*** */
(PID.TID 0000.0001)                 3.116531025121516E+05,      /* I =*** */
(PID.TID 0000.0001)                 3.138564503561421E+05,      /* I =*** */
(PID.TID 0000.0001)                 3.160025832904765E+05,      /* I =*** */
(PID.TID 0000.0001)                 3.180111244362097E+05,      /* I =*** */
(PID.TID 0000.0001)                 3.198082246942282E+05,      /* I =*** */
(PID.TID 0000.0001)                 3.213288727261454E+05,      /* I =*** */
(PID.TID 0000.0001)                 3.225188028454169E+05,      /* I =*** */
(PID.TID 0000.0001)                 3.233360067886980E+05,      /* I =*** */
(PID.TID 0000.0001)     2 @  3.237518583690030E+05,             /* I =***:*** */
(PID.TID 0000.0001)                 3.233360067886980E+05,      /* I =*** */
(PID.TID 0000.0001)                 3.225188028454169E+05,      /* I =*** */
(PID.TID 0000.0001)                 3.213288727261454E+05,      /* I =*** */
(PID.TID 0000.0001)                 3.198082246942282E+05,      /* I =*** */
(PID.TID 0000.0001)                 3.180111244362097E+05,      /* I =*** */
(PID.TID 0000.0001)                 3.160025832904765E+05,      /* I =*** */
(PID.TID 0000.0001)                 3.138564503561421E+05,      /* I =*** */
(PID.TID 0000.0001)                 3.116531025121516E+05,      /* I =*** */
(PID.TID 0000.0001)                 3.094767373001940E+05,      /* I =*** */
(PID.TID 0000.0001)                 3.074122965148668E+05,      /* I =*** */
(PID.TID 0000.0001)                 3.055420860601236E+05,      /* I =*** */
(PID.TID 0000.0001)                 3.039422096857757E+05,      /* I =*** */
(PID.TID 0000.0001)                 3.026789946729719E+05,      /* I =*** */
(PID.TID 0000.0001)                 3.018056440786431E+05,      /* I =*** */
(PID.TID 0000.0001)                 3.013593857228136E+05,      /* I =*** */
(PID.TID 0000.0001)                 2.923599955312932E+05,      /* I =*** */
(PID.TID 0000.0001)                 2.929581318669225E+05,      /* I =*** */
(PID.TID 0000.0001)                 2.941233414269843E+05,      /* I =*** */
(PID.TID 0000.0001)                 2.957965112547295E+05,      /* I =*** */
(PID.TID 0000.0001)                 2.978958309396700E+05,      /* I =*** */
(PID.TID 0000.0001)                 3.003234072832736E+05,      /* I =*** */
(PID.TID 0000.0001)                 3.029720440125284E+05,      /* I =*** */
(PID.TID 0000.0001)                 3.057313676343125E+05,      /* I =*** */
(PID.TID 0000.0001)                 3.084928732605239E+05,      /* I =*** */
(PID.TID 0000.0001)                 3.111538082049081E+05,      /* I =*** */
(PID.TID 0000.0001)                 3.136200274287855E+05,      /* I =*** */
(PID.TID 0000.0001)                 3.158080427002144E+05,      /* I =*** */
(PID.TID 0000.0001)                 3.176464858965941E+05,      /* I =*** */
(PID.TID 0000.0001)                 3.190771611966717E+05,      /* I =*** */
(PID.TID 0000.0001)                 3.200558043339545E+05,      /* I =*** */
(PID.TID 0000.0001)     2 @  3.205526180491640E+05,             /* I =***:*** */
(PID.TID 0000.0001)                 3.200558043339545E+05,      /* I =*** */
(PID.TID 0000.0001)                 3.190771611966717E+05,      /* I =*** */
(PID.TID 0000.0001)                 3.176464858965941E+05,      /* I =*** */
(PID.TID 0000.0001)                 3.158080427002144E+05,      /* I =*** */
(PID.TID 0000.0001)                 3.136200274287855E+05,      /* I =*** */
(PID.TID 0000.0001)                 3.111538082049081E+05,      /* I =*** */
(PID.TID 0000.0001)                 3.084928732605239E+05,      /* I =*** */
(PID.TID 0000.0001)                 3.057313676343125E+05,      /* I =*** */
(PID.TID 0000.0001)                 3.029720440125284E+05,      /* I =*** */
(PID.TID 0000.0001)                 3.003234072832736E+05,      /* I =*** */
(PID.TID 0000.0001)                 2.978958309396700E+05,      /* I =*** */
(PID.TID 0000.0001)                 2.957965112547295E+05,      /* I =*** */
(PID.TID 0000.0001)                 2.941233414269843E+05,      /* I =*** */
(PID.TID 0000.0001)                 2.929581318669225E+05,      /* I =*** */
(PID.TID 0000.0001)                 2.923599955312932E+05,      /* I =*** */
(PID.TID 0000.0001)                 2.647791839299727E+05,      /* I =*** */
(PID.TID 0000.0001)                 2.660295500376044E+05,      /* I =*** */
(PID.TID 0000.0001)                 2.684194260377608E+05,      /* I =*** */
(PID.TID 0000.0001)                 2.717530548984243E+05,      /* I =*** */
(PID.TID 0000.0001)                 2.757889673278915E+05,      /* I =*** */
(PID.TID 0000.0001)                 2.802768275386160E+05,      /* I =*** */
(PID.TID 0000.0001)                 2.849827251709129E+05,      /* I =*** */
(PID.TID 0000.0001)                 2.897017600496954E+05,      /* I =*** */
(PID.TID 0000.0001)                 2.942613213681001E+05,      /* I =*** */
(PID.TID 0000.0001)                 2.985192628631004E+05,      /* I =*** */
(PID.TID 0000.0001)                 3.023601215446892E+05,      /* I =*** */
(PID.TID 0000.0001)                 3.056911758960931E+05,      /* I =*** */
(PID.TID 0000.0001)                 3.084391345892176E+05,      /* I =*** */
(PID.TID 0000.0001)                 3.105476657588797E+05,      /* I =*** */
(PID.TID 0000.0001)                 3.119757031822313E+05,      /* I =*** */
(PID.TID 0000.0001)     2 @  3.126963716684348E+05,             /* I =***:*** */
(PID.TID 0000.0001)                 3.119757031822313E+05,      /* I =*** */
(PID.TID 0000.0001)                 3.105476657588797E+05,      /* I =*** */
(PID.TID 0000.0001)                 3.084391345892176E+05,      /* I =*** */
(PID.TID 0000.0001)                 3.056911758960931E+05,      /* I =*** */
(PID.TID 0000.0001)                 3.023601215446892E+05,      /* I =*** */
(PID.TID 0000.0001)                 2.985192628631004E+05,      /* I =*** */
(PID.TID 0000.0001)                 2.942613213681001E+05,      /* I =*** */
(PID.TID 0000.0001)                 2.897017600496954E+05,      /* I =*** */
(PID.TID 0000.0001)                 2.849827251709129E+05,      /* I =*** */
(PID.TID 0000.0001)                 2.802768275386160E+05,      /* I =*** */
(PID.TID 0000.0001)                 2.757889673278915E+05,      /* I =*** */
(PID.TID 0000.0001)                 2.717530548984243E+05,      /* I =*** */
(PID.TID 0000.0001)                 2.684194260377608E+05,      /* I =*** */
(PID.TID 0000.0001)                 2.660295500376044E+05,      /* I =*** */
(PID.TID 0000.0001)                 2.647791839299727E+05,      /* I =*** */
(PID.TID 0000.0001)                 2.135964483342134E+05,      /* I =*** */
(PID.TID 0000.0001)                 2.177261412410982E+05,      /* I =*** */
(PID.TID 0000.0001)                 2.249049036770762E+05,      /* I =*** */
(PID.TID 0000.0001)                 2.337608097814075E+05,      /* I =*** */
(PID.TID 0000.0001)                 2.432236510574240E+05,      /* I =*** */
(PID.TID 0000.0001)                 2.526238854469011E+05,      /* I =*** */
(PID.TID 0000.0001)                 2.615809138747491E+05,      /* I =*** */
(PID.TID 0000.0001)                 2.698839526285321E+05,      /* I =*** */
(PID.TID 0000.0001)                 2.774139821809750E+05,      /* I =*** */
(PID.TID 0000.0001)                 2.840999901950355E+05,      /* I =*** */
(PID.TID 0000.0001)                 2.898960374748506E+05,      /* I =*** */
(PID.TID 0000.0001)                 2.947697367015565E+05,      /* I =*** */
(PID.TID 0000.0001)                 2.986967441200144E+05,      /* I =*** */
(PID.TID 0000.0001)                 3.016583459871284E+05,      /* I =*** */
(PID.TID 0000.0001)                 3.036405817622399E+05,      /* I =*** */
(PID.TID 0000.0001)     2 @  3.046340673197290E+05,             /* I =***:*** */
(PID.TID 0000.0001)                 3.036405817622399E+05,      /* I =*** */
(PID.TID 0000.0001)                 3.016583459871284E+05,      /* I =*** */
(PID.TID 0000.0001)                 2.986967441200144E+05,      /* I =*** */
(PID.TID 0000.0001)                 2.947697367015565E+05,      /* I =*** */
(PID.TID 0000.0001)                 2.898960374748506E+05,      /* I =*** */
(PID.TID 0000.0001)                 2.840999901950355E+05,      /* I =*** */
(PID.TID 0000.0001)                 2.774139821809750E+05,      /* I =*** */
(PID.TID 0000.0001)                 2.698839526285321E+05,      /* I =*** */
(PID.TID 0000.0001)                 2.615809138747491E+05,      /* I =*** */
(PID.TID 0000.0001)                 2.526238854469011E+05,      /* I =*** */
(PID.TID 0000.0001)                 2.432236510574240E+05,      /* I =*** */
(PID.TID 0000.0001)                 2.337608097814075E+05,      /* I =*** */
(PID.TID 0000.0001)                 2.249049036770762E+05,      /* I =*** */
(PID.TID 0000.0001)                 2.177261412410982E+05,      /* I =*** */
(PID.TID 0000.0001)                 2.135964483342134E+05,      /* I =*** */
(PID.TID 0000.0001)                 1.114203141013064E+05,      /* I =*** */
(PID.TID 0000.0001)                 1.549545757850771E+05,      /* I =*** */
(PID.TID 0000.0001)                 1.829777599966776E+05,      /* I =*** */
(PID.TID 0000.0001)                 2.042717761866506E+05,      /* I =*** */
(PID.TID 0000.0001)                 2.216367828252819E+05,      /* I =*** */
(PID.TID 0000.0001)                 2.363029564123586E+05,      /* I =*** */
(PID.TID 0000.0001)                 2.489113743322025E+05,      /* I =*** */
(PID.TID 0000.0001)                 2.598293319150326E+05,      /* I =*** */
(PID.TID 0000.0001)                 2.692787333338535E+05,      /* I =*** */
(PID.TID 0000.0001)                 2.773972106720365E+05,      /* I =*** */
(PID.TID 0000.0001)                 2.842706922224557E+05,      /* I =*** */
(PID.TID 0000.0001)                 2.899523122489403E+05,      /* I =*** */
(PID.TID 0000.0001)                 2.944741346384699E+05,      /* I =*** */
(PID.TID 0000.0001)                 2.978547649292580E+05,      /* I =*** */
(PID.TID 0000.0001)                 3.001044073506459E+05,      /* I =*** */
(PID.TID 0000.0001)     2 @  3.012281885409289E+05,             /* I =***:*** */
(PID.TID 0000.0001)                 3.001044073506459E+05,      /* I =*** */
(PID.TID 0000.0001)                 2.978547649292580E+05,      /* I =*** */
(PID.TID 0000.0001)                 2.944741346384699E+05,      /* I =*** */
(PID.TID 0000.0001)                 2.899523122489403E+05,      /* I =*** */
(PID.TID 0000.0001)                 2.842706922224557E+05,      /* I =*** */
(PID.TID 0000.0001)                 2.773972106720365E+05,      /* I =*** */
(PID.TID 0000.0001)                 2.692787333338535E+05,      /* I =*** */
(PID.TID 0000.0001)                 2.598293319150326E+05,      /* I =*** */
(PID.TID 0000.0001)                 2.489113743322025E+05,      /* I =*** */
(PID.TID 0000.0001)                 2.363029564123586E+05,      /* I =*** */
(PID.TID 0000.0001)                 2.216367828252819E+05,      /* I =*** */
(PID.TID 0000.0001)                 2.042717761866506E+05,      /* I =*** */
(PID.TID 0000.0001)                 1.829777599966776E+05,      /* I =*** */
(PID.TID 0000.0001)                 1.549545757850771E+05,      /* I =*** */
(PID.TID 0000.0001)                 1.114203141013064E+05,      /* I =*** */
(PID.TID 0000.0001)                 2.135964483342134E+05,      /* I =*** */
(PID.TID 0000.0001)                 2.177261412410982E+05,      /* I =*** */
(PID.TID 0000.0001)                 2.249049036770762E+05,      /* I =*** */
(PID.TID 0000.0001)                 2.337608097814075E+05,      /* I =*** */
(PID.TID 0000.0001)                 2.432236510574240E+05,      /* I =*** */
(PID.TID 0000.0001)                 2.526238854469011E+05,      /* I =*** */
(PID.TID 0000.0001)                 2.615809138747491E+05,      /* I =*** */
(PID.TID 0000.0001)                 2.698839526285321E+05,      /* I =*** */
(PID.TID 0000.0001)                 2.774139821809750E+05,      /* I =*** */
(PID.TID 0000.0001)                 2.840999901950355E+05,      /* I =*** */
(PID.TID 0000.0001)                 2.898960374748506E+05,      /* I =*** */
(PID.TID 0000.0001)                 2.947697367015565E+05,      /* I =*** */
(PID.TID 0000.0001)                 2.986967441200144E+05,      /* I =*** */
(PID.TID 0000.0001)                 3.016583459871284E+05,      /* I =*** */
(PID.TID 0000.0001)                 3.036405817622399E+05,      /* I =*** */
(PID.TID 0000.0001)     2 @  3.046340673197290E+05,             /* I =***:*** */
(PID.TID 0000.0001)                 3.036405817622399E+05,      /* I =*** */
(PID.TID 0000.0001)                 3.016583459871284E+05,      /* I =*** */
(PID.TID 0000.0001)                 2.986967441200144E+05,      /* I =*** */
(PID.TID 0000.0001)                 2.947697367015565E+05,      /* I =*** */
(PID.TID 0000.0001)                 2.898960374748506E+05,      /* I =*** */
(PID.TID 0000.0001)                 2.840999901950355E+05,      /* I =*** */
(PID.TID 0000.0001)                 2.774139821809750E+05,      /* I =*** */
(PID.TID 0000.0001)                 2.698839526285321E+05,      /* I =*** */
(PID.TID 0000.0001)                 2.615809138747491E+05,      /* I =*** */
(PID.TID 0000.0001)                 2.526238854469011E+05,      /* I =*** */
(PID.TID 0000.0001)                 2.432236510574240E+05,      /* I =*** */
(PID.TID 0000.0001)                 2.337608097814075E+05,      /* I =*** */
(PID.TID 0000.0001)                 2.249049036770762E+05,      /* I =*** */
(PID.TID 0000.0001)                 2.177261412410982E+05,      /* I =*** */
(PID.TID 0000.0001)                 2.135964483342134E+05,      /* I =*** */
(PID.TID 0000.0001)                 2.647791839299727E+05,      /* I =*** */
(PID.TID 0000.0001)                 2.660295500376044E+05,      /* I =*** */
(PID.TID 0000.0001)                 2.684194260377608E+05,      /* I =*** */
(PID.TID 0000.0001)                 2.717530548984243E+05,      /* I =*** */
(PID.TID 0000.0001)                 2.757889673278915E+05,      /* I =*** */
(PID.TID 0000.0001)                 2.802768275386160E+05,      /* I =*** */
(PID.TID 0000.0001)                 2.849827251709129E+05,      /* I =*** */
(PID.TID 0000.0001)                 2.897017600496954E+05,      /* I =*** */
(PID.TID 0000.0001)                 2.942613213681001E+05,      /* I =*** */
(PID.TID 0000.0001)                 2.985192628631004E+05,      /* I =*** */
(PID.TID 0000.0001)                 3.023601215446892E+05,      /* I =*** */
(PID.TID 0000.0001)                 3.056911758960931E+05,      /* I =*** */
(PID.TID 0000.0001)                 3.084391345892176E+05,      /* I =*** */
(PID.TID 0000.0001)                 3.105476657588797E+05,      /* I =*** */
(PID.TID 0000.0001)                 3.119757031822313E+05,      /* I =*** */
(PID.TID 0000.0001)     2 @  3.126963716684348E+05,             /* I =***:*** */
(PID.TID 0000.0001)                 3.119757031822313E+05,      /* I =*** */
(PID.TID 0000.0001)                 3.105476657588797E+05,      /* I =*** */
(PID.TID 0000.0001)                 3.084391345892176E+05,      /* I =*** */
(PID.TID 0000.0001)                 3.056911758960931E+05,      /* I =*** */
(PID.TID 0000.0001)                 3.023601215446892E+05,      /* I =*** */
(PID.TID 0000.0001)                 2.985192628631004E+05,      /* I =*** */
(PID.TID 0000.0001)                 2.942613213681001E+05,      /* I =*** */
(PID.TID 0000.0001)                 2.897017600496954E+05,      /* I =*** */
(PID.TID 0000.0001)                 2.849827251709129E+05,      /* I =*** */
(PID.TID 0000.0001)                 2.802768275386160E+05,      /* I =*** */
(PID.TID 0000.0001)                 2.757889673278915E+05,      /* I =*** */
(PID.TID 0000.0001)                 2.717530548984243E+05,      /* I =*** */
(PID.TID 0000.0001)                 2.684194260377608E+05,      /* I =*** */
(PID.TID 0000.0001)                 2.660295500376044E+05,      /* I =*** */
(PID.TID 0000.0001)                 2.647791839299727E+05,      /* I =*** */
(PID.TID 0000.0001)                 2.923599955312932E+05,      /* I =*** */
(PID.TID 0000.0001)                 2.929581318669225E+05,      /* I =*** */
(PID.TID 0000.0001)                 2.941233414269843E+05,      /* I =*** */
(PID.TID 0000.0001)                 2.957965112547295E+05,      /* I =*** */
(PID.TID 0000.0001)                 2.978958309396700E+05,      /* I =*** */
(PID.TID 0000.0001)                 3.003234072832736E+05,      /* I =*** */
(PID.TID 0000.0001)                 3.029720440125284E+05,      /* I =*** */
(PID.TID 0000.0001)                 3.057313676343125E+05,      /* I =*** */
(PID.TID 0000.0001)                 3.084928732605239E+05,      /* I =*** */
(PID.TID 0000.0001)                 3.111538082049081E+05,      /* I =*** */
(PID.TID 0000.0001)                 3.136200274287855E+05,      /* I =*** */
(PID.TID 0000.0001)                 3.158080427002144E+05,      /* I =*** */
(PID.TID 0000.0001)                 3.176464858965941E+05,      /* I =*** */
(PID.TID 0000.0001)                 3.190771611966717E+05,      /* I =*** */
(PID.TID 0000.0001)                 3.200558043339545E+05,      /* I =*** */
(PID.TID 0000.0001)     2 @  3.205526180491640E+05,             /* I =***:*** */
(PID.TID 0000.0001)                 3.200558043339545E+05,      /* I =*** */
(PID.TID 0000.0001)                 3.190771611966717E+05,      /* I =*** */
(PID.TID 0000.0001)                 3.176464858965941E+05,      /* I =*** */
(PID.TID 0000.0001)                 3.158080427002144E+05,      /* I =*** */
(PID.TID 0000.0001)                 3.136200274287855E+05,      /* I =*** */
(PID.TID 0000.0001)                 3.111538082049081E+05,      /* I =*** */
(PID.TID 0000.0001)                 3.084928732605239E+05,      /* I =*** */
(PID.TID 0000.0001)                 3.057313676343125E+05,      /* I =*** */
(PID.TID 0000.0001)                 3.029720440125284E+05,      /* I =*** */
(PID.TID 0000.0001)                 3.003234072832736E+05,      /* I =*** */
(PID.TID 0000.0001)                 2.978958309396700E+05,      /* I =*** */
(PID.TID 0000.0001)                 2.957965112547295E+05,      /* I =*** */
(PID.TID 0000.0001)                 2.941233414269843E+05,      /* I =*** */
(PID.TID 0000.0001)                 2.929581318669225E+05,      /* I =*** */
(PID.TID 0000.0001)                 2.923599955312932E+05,      /* I =*** */
(PID.TID 0000.0001)                 3.013593857228136E+05,      /* I =*** */
(PID.TID 0000.0001)                 3.018056440786431E+05,      /* I =*** */
(PID.TID 0000.0001)                 3.026789946729719E+05,      /* I =*** */
(PID.TID 0000.0001)                 3.039422096857757E+05,      /* I =*** */
(PID.TID 0000.0001)                 3.055420860601236E+05,      /* I =*** */
(PID.TID 0000.0001)                 3.074122965148668E+05,      /* I =*** */
(PID.TID 0000.0001)                 3.094767373001940E+05,      /* I =*** */
(PID.TID 0000.0001)                 3.116531025121516E+05,      /* I =*** */
(PID.TID 0000.0001)                 3.138564503561421E+05,      /* I =*** */
(PID.TID 0000.0001)                 3.160025832904765E+05,      /* I =*** */
(PID.TID 0000.0001)                 3.180111244362097E+05,      /* I =*** */
(PID.TID 0000.0001)                 3.198082246942282E+05,      /* I =*** */
(PID.TID 0000.0001)                 3.213288727261454E+05,      /* I =*** */
(PID.TID 0000.0001)                 3.225188028454169E+05,      /* I =*** */
(PID.TID 0000.0001)                 3.233360067886980E+05,      /* I =*** */
(PID.TID 0000.0001)     2 @  3.237518583690030E+05,             /* I =***:*** */
(PID.TID 0000.0001)                 3.233360067886980E+05,      /* I =*** */
(PID.TID 0000.0001)                 3.225188028454169E+05,      /* I =*** */
(PID.TID 0000.0001)                 3.213288727261454E+05,      /* I =*** */
(PID.TID 0000.0001)                 3.198082246942282E+05,      /* I =*** */
(PID.TID 0000.0001)                 3.180111244362097E+05,      /* I =*** */
(PID.TID 0000.0001)                 3.160025832904765E+05,      /* I =*** */
(PID.TID 0000.0001)                 3.138564503561421E+05,      /* I =*** */
(PID.TID 0000.0001)                 3.116531025121516E+05,      /* I =*** */
(PID.TID 0000.0001)                 3.094767373001940E+05,      /* I =*** */
(PID.TID 0000.0001)                 3.074122965148668E+05,      /* I =*** */
(PID.TID 0000.0001)                 3.055420860601236E+05,      /* I =*** */
(PID.TID 0000.0001)                 3.039422096857757E+05,      /* I =*** */
(PID.TID 0000.0001)                 3.026789946729719E+05,      /* I =*** */
(PID.TID 0000.0001)                 3.018056440786431E+05,      /* I =*** */
(PID.TID 0000.0001)                 3.013593857228136E+05,      /* I =*** */
(PID.TID 0000.0001)                 2.923599955312932E+05,      /* I =*** */
(PID.TID 0000.0001)                 2.929581318669225E+05,      /* I =*** */
(PID.TID 0000.0001)                 2.941233414269843E+05,      /* I =*** */
(PID.TID 0000.0001)                 2.957965112547295E+05,      /* I =*** */
(PID.TID 0000.0001)                 2.978958309396700E+05,      /* I =*** */
(PID.TID 0000.0001)                 3.003234072832736E+05,      /* I =*** */
(PID.TID 0000.0001)                 3.029720440125284E+05,      /* I =*** */
(PID.TID 0000.0001)                 3.057313676343125E+05,      /* I =*** */
(PID.TID 0000.0001)                 3.084928732605239E+05,      /* I =*** */
(PID.TID 0000.0001)                 3.111538082049081E+05,      /* I =*** */
(PID.TID 0000.0001)                 3.136200274287855E+05,      /* I =*** */
(PID.TID 0000.0001)                 3.158080427002144E+05,      /* I =*** */
(PID.TID 0000.0001)                 3.176464858965941E+05,      /* I =*** */
(PID.TID 0000.0001)                 3.190771611966717E+05,      /* I =*** */
(PID.TID 0000.0001)                 3.200558043339545E+05,      /* I =*** */
(PID.TID 0000.0001)     2 @  3.205526180491640E+05,             /* I =***:*** */
(PID.TID 0000.0001)                 3.200558043339545E+05,      /* I =*** */
(PID.TID 0000.0001)                 3.190771611966717E+05,      /* I =*** */
(PID.TID 0000.0001)                 3.176464858965941E+05,      /* I =*** */
(PID.TID 0000.0001)                 3.158080427002144E+05,      /* I =*** */
(PID.TID 0000.0001)                 3.136200274287855E+05,      /* I =*** */
(PID.TID 0000.0001)                 3.111538082049081E+05,      /* I =*** */
(PID.TID 0000.0001)                 3.084928732605239E+05,      /* I =*** */
(PID.TID 0000.0001)                 3.057313676343125E+05,      /* I =*** */
(PID.TID 0000.0001)                 3.029720440125284E+05,      /* I =*** */
(PID.TID 0000.0001)                 3.003234072832736E+05,      /* I =*** */
(PID.TID 0000.0001)                 2.978958309396700E+05,      /* I =*** */
(PID.TID 0000.0001)                 2.957965112547295E+05,      /* I =*** */
(PID.TID 0000.0001)                 2.941233414269843E+05,      /* I =*** */
(PID.TID 0000.0001)                 2.929581318669225E+05,      /* I =*** */
(PID.TID 0000.0001)                 2.923599955312932E+05,      /* I =*** */
(PID.TID 0000.0001)                 2.647791839299727E+05,      /* I =*** */
(PID.TID 0000.0001)                 2.660295500376044E+05,      /* I =*** */
(PID.TID 0000.0001)                 2.684194260377608E+05,      /* I =*** */
(PID.TID 0000.0001)                 2.717530548984243E+05,      /* I =*** */
(PID.TID 0000.0001)                 2.757889673278915E+05,      /* I =*** */
(PID.TID 0000.0001)                 2.802768275386160E+05,      /* I =*** */
(PID.TID 0000.0001)                 2.849827251709129E+05,      /* I =*** */
(PID.TID 0000.0001)                 2.897017600496954E+05,      /* I =*** */
(PID.TID 0000.0001)                 2.942613213681001E+05,      /* I =*** */
(PID.TID 0000.0001)                 2.985192628631004E+05,      /* I =*** */
(PID.TID 0000.0001)                 3.023601215446892E+05,      /* I =*** */
(PID.TID 0000.0001)                 3.056911758960931E+05,      /* I =*** */
(PID.TID 0000.0001)                 3.084391345892176E+05,      /* I =*** */
(PID.TID 0000.0001)                 3.105476657588797E+05,      /* I =*** */
(PID.TID 0000.0001)                 3.119757031822313E+05,      /* I =*** */
(PID.TID 0000.0001)     2 @  3.126963716684348E+05,             /* I =***:*** */
(PID.TID 0000.0001)                 3.119757031822313E+05,      /* I =*** */
(PID.TID 0000.0001)                 3.105476657588797E+05,      /* I =*** */
(PID.TID 0000.0001)                 3.084391345892176E+05,      /* I =*** */
(PID.TID 0000.0001)                 3.056911758960931E+05,      /* I =*** */
(PID.TID 0000.0001)                 3.023601215446892E+05,      /* I =*** */
(PID.TID 0000.0001)                 2.985192628631004E+05,      /* I =*** */
(PID.TID 0000.0001)                 2.942613213681001E+05,      /* I =*** */
(PID.TID 0000.0001)                 2.897017600496954E+05,      /* I =*** */
(PID.TID 0000.0001)                 2.849827251709129E+05,      /* I =*** */
(PID.TID 0000.0001)                 2.802768275386160E+05,      /* I =*** */
(PID.TID 0000.0001)                 2.757889673278915E+05,      /* I =*** */
(PID.TID 0000.0001)                 2.717530548984243E+05,      /* I =*** */
(PID.TID 0000.0001)                 2.684194260377608E+05,      /* I =*** */
(PID.TID 0000.0001)                 2.660295500376044E+05,      /* I =*** */
(PID.TID 0000.0001)                 2.647791839299727E+05,      /* I =*** */
(PID.TID 0000.0001)                 2.135964483342134E+05,      /* I =*** */
(PID.TID 0000.0001)                 2.177261412410982E+05,      /* I =*** */
(PID.TID 0000.0001)                 2.249049036770762E+05,      /* I =*** */
(PID.TID 0000.0001)                 2.337608097814075E+05,      /* I =*** */
(PID.TID 0000.0001)                 2.432236510574240E+05,      /* I =*** */
(PID.TID 0000.0001)                 2.526238854469011E+05,      /* I =*** */
(PID.TID 0000.0001)                 2.615809138747491E+05,      /* I =*** */
(PID.TID 0000.0001)                 2.698839526285321E+05,      /* I =*** */
(PID.TID 0000.0001)                 2.774139821809750E+05,      /* I =*** */
(PID.TID 0000.0001)                 2.840999901950355E+05,      /* I =*** */
(PID.TID 0000.0001)                 2.898960374748506E+05,      /* I =*** */
(PID.TID 0000.0001)                 2.947697367015565E+05,      /* I =*** */
(PID.TID 0000.0001)                 2.986967441200144E+05,      /* I =*** */
(PID.TID 0000.0001)                 3.016583459871284E+05,      /* I =*** */
(PID.TID 0000.0001)                 3.036405817622399E+05,      /* I =*** */
(PID.TID 0000.0001)     2 @  3.046340673197290E+05,             /* I =***:*** */
(PID.TID 0000.0001)                 3.036405817622399E+05,      /* I =*** */
(PID.TID 0000.0001)                 3.016583459871284E+05,      /* I =*** */
(PID.TID 0000.0001)                 2.986967441200144E+05,      /* I =*** */
(PID.TID 0000.0001)                 2.947697367015565E+05,      /* I =*** */
(PID.TID 0000.0001)                 2.898960374748506E+05,      /* I =*** */
(PID.TID 0000.0001)                 2.840999901950355E+05,      /* I =*** */
(PID.TID 0000.0001)                 2.774139821809750E+05,      /* I =*** */
(PID.TID 0000.0001)                 2.698839526285321E+05,      /* I =*** */
(PID.TID 0000.0001)                 2.615809138747491E+05,      /* I =*** */
(PID.TID 0000.0001)                 2.526238854469011E+05,      /* I =*** */
(PID.TID 0000.0001)                 2.432236510574240E+05,      /* I =*** */
(PID.TID 0000.0001)                 2.337608097814075E+05,      /* I =*** */
(PID.TID 0000.0001)                 2.249049036770762E+05,      /* I =*** */
(PID.TID 0000.0001)                 2.177261412410982E+05,      /* I =*** */
(PID.TID 0000.0001)                 2.135964483342134E+05       /* I =*** */
(PID.TID 0000.0001)     ;
(PID.TID 0000.0001) dyC =  /* dyC(1,:,1,:) ( m - cartesian, degrees - spherical ) */
(PID.TID 0000.0001)                 1.114203141013064E+05,      /* J =  1 */
(PID.TID 0000.0001)                 1.391343389937106E+05,      /* J =  2 */
(PID.TID 0000.0001)                 1.709574999026266E+05,      /* J =  3 */
(PID.TID 0000.0001)                 1.946503699269892E+05       /* J =  4 */
(PID.TID 0000.0001)     ;
(PID.TID 0000.0001) dxV =  /* dxV(:,1,:,1) ( m - cartesian, degrees - spherical ) */
(PID.TID 0000.0001)                 8.015229982413632E+04,      /* I =  1 */
(PID.TID 0000.0001)                 1.333130744933864E+05,      /* I =  2 */
(PID.TID 0000.0001)                 1.691744868129062E+05,      /* I =  3 */
(PID.TID 0000.0001)                 1.937548202849060E+05,      /* I =  4 */
(PID.TID 0000.0001)                 2.130490056267208E+05,      /* I =  5 */
(PID.TID 0000.0001)                 2.290479919481738E+05,      /* I =  6 */
(PID.TID 0000.0001)                 2.426774358027003E+05,      /* I =  7 */
(PID.TID 0000.0001)                 2.544372984215561E+05,      /* I =  8 */
(PID.TID 0000.0001)                 2.646201463834826E+05,      /* I =  9 */
(PID.TID 0000.0001)                 2.734046499619031E+05,      /* I = 10 */
(PID.TID 0000.0001)                 2.809019351693761E+05,      /* I = 11 */
(PID.TID 0000.0001)                 2.871811105274442E+05,      /* I = 12 */
(PID.TID 0000.0001)                 2.922844849381675E+05,      /* I = 13 */
(PID.TID 0000.0001)                 2.962371870847826E+05,      /* I = 14 */
(PID.TID 0000.0001)                 2.990534755671296E+05,      /* I = 15 */
(PID.TID 0000.0001)                 3.007409169495504E+05,      /* I = 16 */
(PID.TID 0000.0001)                 3.013031486919771E+05,      /* I = 17 */
(PID.TID 0000.0001)                 3.007409169495504E+05,      /* I = 18 */
(PID.TID 0000.0001)                 2.990534755671296E+05,      /* I = 19 */
(PID.TID 0000.0001)                 2.962371870847826E+05,      /* I = 20 */
(PID.TID 0000.0001)                 2.922844849381675E+05,      /* I = 21 */
(PID.TID 0000.0001)                 2.871811105274442E+05,      /* I = 22 */
(PID.TID 0000.0001)                 2.809019351693761E+05,      /* I = 23 */
(PID.TID 0000.0001)                 2.734046499619031E+05,      /* I = 24 */
(PID.TID 0000.0001)                 2.646201463834826E+05,      /* I = 25 */
(PID.TID 0000.0001)                 2.544372984215561E+05,      /* I = 26 */
(PID.TID 0000.0001)                 2.426774358027003E+05,      /* I = 27 */
(PID.TID 0000.0001)                 2.290479919481738E+05,      /* I = 28 */
(PID.TID 0000.0001)                 2.130490056267208E+05,      /* I = 29 */
(PID.TID 0000.0001)                 1.937548202849060E+05,      /* I = 30 */
(PID.TID 0000.0001)                 1.691744868129062E+05,      /* I = 31 */
(PID.TID 0000.0001)                 1.333130744933864E+05,      /* I = 32 */
(PID.TID 0000.0001)                 2.133486626971531E+05,      /* I = 33 */
(PID.TID 0000.0001)                 2.154101527595057E+05,      /* I = 34 */
(PID.TID 0000.0001)                 2.211519075665486E+05,      /* I = 35 */
(PID.TID 0000.0001)                 2.292508886976699E+05,      /* I = 36 */
(PID.TID 0000.0001)                 2.384665985420439E+05,      /* I = 37 */
(PID.TID 0000.0001)                 2.479326143289449E+05,      /* I = 38 */
(PID.TID 0000.0001)                 2.571317856571183E+05,      /* I = 39 */
(PID.TID 0000.0001)                 2.657743747017959E+05,      /* I = 40 */
(PID.TID 0000.0001)                 2.736990267615226E+05,      /* I = 41 */
(PID.TID 0000.0001)                 2.808126658182779E+05,      /* I = 42 */
(PID.TID 0000.0001)                 2.870578357484073E+05,      /* I = 43 */
(PID.TID 0000.0001)                 2.923958928385492E+05,      /* I = 44 */
(PID.TID 0000.0001)                 2.967987247986380E+05,      /* I = 45 */
(PID.TID 0000.0001)                 3.002449168090383E+05,      /* I = 46 */
(PID.TID 0000.0001)                 3.027181755059779E+05,      /* I = 47 */
(PID.TID 0000.0001)                 3.042068401906188E+05,      /* I = 48 */
(PID.TID 0000.0001)                 3.047039405458409E+05,      /* I = 49 */
(PID.TID 0000.0001)                 3.042068401906188E+05,      /* I = 50 */
(PID.TID 0000.0001)                 3.027181755059779E+05,      /* I = 51 */
(PID.TID 0000.0001)                 3.002449168090383E+05,      /* I = 52 */
(PID.TID 0000.0001)                 2.967987247986380E+05,      /* I = 53 */
(PID.TID 0000.0001)                 2.923958928385492E+05,      /* I = 54 */
(PID.TID 0000.0001)                 2.870578357484073E+05,      /* I = 55 */
(PID.TID 0000.0001)                 2.808126658182779E+05,      /* I = 56 */
(PID.TID 0000.0001)                 2.736990267615226E+05,      /* I = 57 */
(PID.TID 0000.0001)                 2.657743747017959E+05,      /* I = 58 */
(PID.TID 0000.0001)                 2.571317856571183E+05,      /* I = 59 */
(PID.TID 0000.0001)                 2.479326143289449E+05,      /* I = 60 */
(PID.TID 0000.0001)                 2.384665985420439E+05,      /* I = 61 */
(PID.TID 0000.0001)                 2.292508886976699E+05,      /* I = 62 */
(PID.TID 0000.0001)                 2.211519075665486E+05,      /* I = 63 */
(PID.TID 0000.0001)                 2.154101527595057E+05,      /* I = 64 */
(PID.TID 0000.0001)                 2.647274964828301E+05,      /* I = 65 */
(PID.TID 0000.0001)                 2.653456356424517E+05,      /* I = 66 */
(PID.TID 0000.0001)                 2.671753991965412E+05,      /* I = 67 */
(PID.TID 0000.0001)                 2.700508040612306E+05,      /* I = 68 */
(PID.TID 0000.0001)                 2.737508146608168E+05,      /* I = 69 */
(PID.TID 0000.0001)                 2.780276168082243E+05,      /* I = 70 */
(PID.TID 0000.0001)                 2.826379708415628E+05,      /* I = 71 */
(PID.TID 0000.0001)                 2.873620334559252E+05,      /* I = 72 */
(PID.TID 0000.0001)                 2.920110325953347E+05,      /* I = 73 */
(PID.TID 0000.0001)                 2.964277678938787E+05,      /* I = 74 */
(PID.TID 0000.0001)                 3.004836638020456E+05,      /* I = 75 */
(PID.TID 0000.0001)                 3.040748366383395E+05,      /* I = 76 */
(PID.TID 0000.0001)                 3.071184425324030E+05,      /* I = 77 */
(PID.TID 0000.0001)                 3.095497845682837E+05,      /* I = 78 */
(PID.TID 0000.0001)                 3.113202383405265E+05,      /* I = 79 */
(PID.TID 0000.0001)                 3.123958777280941E+05,      /* I = 80 */
(PID.TID 0000.0001)                 3.127567211383312E+05,      /* I = 81 */
(PID.TID 0000.0001)                 3.123958777280941E+05,      /* I = 82 */
(PID.TID 0000.0001)                 3.113202383405265E+05,      /* I = 83 */
(PID.TID 0000.0001)                 3.095497845682837E+05,      /* I = 84 */
(PID.TID 0000.0001)                 3.071184425324030E+05,      /* I = 85 */
(PID.TID 0000.0001)                 3.040748366383395E+05,      /* I = 86 */
(PID.TID 0000.0001)                 3.004836638020456E+05,      /* I = 87 */
(PID.TID 0000.0001)                 2.964277678938787E+05,      /* I = 88 */
(PID.TID 0000.0001)                 2.920110325953347E+05,      /* I = 89 */
(PID.TID 0000.0001)                 2.873620334559252E+05,      /* I = 90 */
(PID.TID 0000.0001)                 2.826379708415628E+05,      /* I = 91 */
(PID.TID 0000.0001)                 2.780276168082243E+05,      /* I = 92 */
(PID.TID 0000.0001)                 2.737508146608168E+05,      /* I = 93 */
(PID.TID 0000.0001)                 2.700508040612306E+05,      /* I = 94 */
(PID.TID 0000.0001)                 2.671753991965412E+05,      /* I = 95 */
(PID.TID 0000.0001)                 2.653456356424517E+05,      /* I = 96 */
(PID.TID 0000.0001)                 2.923567890694162E+05,      /* I = 97 */
(PID.TID 0000.0001)                 2.926545230536374E+05,      /* I = 98 */
(PID.TID 0000.0001)                 2.935386689892191E+05,      /* I = 99 */
(PID.TID 0000.0001)                 2.949617148863616E+05,      /* I =100 */
(PID.TID 0000.0001)                 2.968528632519549E+05,      /* I =101 */
(PID.TID 0000.0001)                 2.991218910822632E+05,      /* I =102 */
(PID.TID 0000.0001)                 3.016659012529000E+05,      /* I =103 */
(PID.TID 0000.0001)                 3.043758085573489E+05,      /* I =104 */
(PID.TID 0000.0001)                 3.071419371354089E+05,      /* I =105 */
(PID.TID 0000.0001)                 3.098584812990768E+05,      /* I =106 */
(PID.TID 0000.0001)                 3.124268635934817E+05,      /* I =107 */
(PID.TID 0000.0001)                 3.147581742806108E+05,      /* I =108 */
(PID.TID 0000.0001)                 3.167749168862456E+05,      /* I =109 */
(PID.TID 0000.0001)                 3.184122585888001E+05,      /* I =110 */
(PID.TID 0000.0001)                 3.196189316921739E+05,      /* I =111 */
(PID.TID 0000.0001)                 3.203578790063228E+05,      /* I =112 */
(PID.TID 0000.0001)                 3.206067683235888E+05,      /* I =113 */
(PID.TID 0000.0001)                 3.203578790063228E+05,      /* I =114 */
(PID.TID 0000.0001)                 3.196189316921739E+05,      /* I =115 */
(PID.TID 0000.0001)                 3.184122585888001E+05,      /* I =116 */
(PID.TID 0000.0001)                 3.167749168862456E+05,      /* I =117 */
(PID.TID 0000.0001)                 3.147581742806108E+05,      /* I =118 */
(PID.TID 0000.0001)                 3.124268635934817E+05,      /* I =119 */
(PID.TID 0000.0001)                 3.098584812990768E+05,      /* I =120 */
(PID.TID 0000.0001)                 3.071419371354089E+05,      /* I =121 */
(PID.TID 0000.0001)                 3.043758085573489E+05,      /* I =122 */
(PID.TID 0000.0001)                 3.016659012529000E+05,      /* I =123 */
(PID.TID 0000.0001)                 2.991218910822632E+05,      /* I =124 */
(PID.TID 0000.0001)                 2.968528632519549E+05,      /* I =125 */
(PID.TID 0000.0001)                 2.949617148863616E+05,      /* I =126 */
(PID.TID 0000.0001)                 2.935386689892191E+05,      /* I =127 */
(PID.TID 0000.0001)                 2.926545230536374E+05,      /* I =128 */
(PID.TID 0000.0001)                 3.013686170436881E+05,      /* I =129 */
(PID.TID 0000.0001)                 3.015922136961168E+05,      /* I =130 */
(PID.TID 0000.0001)                 3.022533948177109E+05,      /* I =131 */
(PID.TID 0000.0001)                 3.033238888442880E+05,      /* I =132 */
(PID.TID 0000.0001)                 3.047583645125296E+05,      /* I =133 */
(PID.TID 0000.0001)                 3.064969104248934E+05,      /* I =134 */
(PID.TID 0000.0001)                 3.084681464323149E+05,      /* I =135 */
(PID.TID 0000.0001)                 3.105926959662063E+05,      /* I =136 */
(PID.TID 0000.0001)                 3.127867656729039E+05,      /* I =137 */
(PID.TID 0000.0001)                 3.149656255235069E+05,      /* I =138 */
(PID.TID 0000.0001)                 3.170468416979250E+05,      /* I =139 */
(PID.TID 0000.0001)                 3.189531711639232E+05,      /* I =140 */
(PID.TID 0000.0001)                 3.206150718566154E+05,      /* I =141 */
(PID.TID 0000.0001)                 3.219728125807783E+05,      /* I =142 */
(PID.TID 0000.0001)                 3.229781834933111E+05,      /* I =143 */
(PID.TID 0000.0001)                 3.235958148230841E+05,      /* I =144 */
(PID.TID 0000.0001)                 3.238041816275029E+05,      /* I =145 */
(PID.TID 0000.0001)                 3.235958148230841E+05,      /* I =146 */
(PID.TID 0000.0001)                 3.229781834933111E+05,      /* I =147 */
(PID.TID 0000.0001)                 3.219728125807783E+05,      /* I =148 */
(PID.TID 0000.0001)                 3.206150718566154E+05,      /* I =149 */
(PID.TID 0000.0001)                 3.189531711639232E+05,      /* I =150 */
(PID.TID 0000.0001)                 3.170468416979250E+05,      /* I =151 */
(PID.TID 0000.0001)                 3.149656255235069E+05,      /* I =152 */
(PID.TID 0000.0001)                 3.127867656729039E+05,      /* I =153 */
(PID.TID 0000.0001)                 3.105926959662063E+05,      /* I =154 */
(PID.TID 0000.0001)                 3.084681464323149E+05,      /* I =155 */
(PID.TID 0000.0001)                 3.064969104248934E+05,      /* I =156 */
(PID.TID 0000.0001)                 3.047583645125296E+05,      /* I =157 */
(PID.TID 0000.0001)                 3.033238888442880E+05,      /* I =158 */
(PID.TID 0000.0001)                 3.022533948177109E+05,      /* I =159 */
(PID.TID 0000.0001)                 3.015922136961168E+05,      /* I =160 */
(PID.TID 0000.0001)                 2.923567890694162E+05,      /* I =161 */
(PID.TID 0000.0001)                 2.926545230536374E+05,      /* I =162 */
(PID.TID 0000.0001)                 2.935386689892191E+05,      /* I =163 */
(PID.TID 0000.0001)                 2.949617148863616E+05,      /* I =164 */
(PID.TID 0000.0001)                 2.968528632519549E+05,      /* I =165 */
(PID.TID 0000.0001)                 2.991218910822632E+05,      /* I =166 */
(PID.TID 0000.0001)                 3.016659012529000E+05,      /* I =167 */
(PID.TID 0000.0001)                 3.043758085573489E+05,      /* I =168 */
(PID.TID 0000.0001)                 3.071419371354089E+05,      /* I =169 */
(PID.TID 0000.0001)                 3.098584812990768E+05,      /* I =170 */
(PID.TID 0000.0001)                 3.124268635934817E+05,      /* I =171 */
(PID.TID 0000.0001)                 3.147581742806108E+05,      /* I =172 */
(PID.TID 0000.0001)                 3.167749168862456E+05,      /* I =173 */
(PID.TID 0000.0001)                 3.184122585888001E+05,      /* I =174 */
(PID.TID 0000.0001)                 3.196189316921739E+05,      /* I =175 */
(PID.TID 0000.0001)                 3.203578790063228E+05,      /* I =176 */
(PID.TID 0000.0001)                 3.206067683235888E+05,      /* I =177 */
(PID.TID 0000.0001)                 3.203578790063228E+05,      /* I =178 */
(PID.TID 0000.0001)                 3.196189316921739E+05,      /* I =179 */
(PID.TID 0000.0001)                 3.184122585888001E+05,      /* I =180 */
(PID.TID 0000.0001)                 3.167749168862456E+05,      /* I =181 */
(PID.TID 0000.0001)                 3.147581742806108E+05,      /* I =182 */
(PID.TID 0000.0001)                 3.124268635934817E+05,      /* I =183 */
(PID.TID 0000.0001)                 3.098584812990768E+05,      /* I =184 */
(PID.TID 0000.0001)                 3.071419371354089E+05,      /* I =185 */
(PID.TID 0000.0001)                 3.043758085573489E+05,      /* I =186 */
(PID.TID 0000.0001)                 3.016659012529000E+05,      /* I =187 */
(PID.TID 0000.0001)                 2.991218910822632E+05,      /* I =188 */
(PID.TID 0000.0001)                 2.968528632519549E+05,      /* I =189 */
(PID.TID 0000.0001)                 2.949617148863616E+05,      /* I =190 */
(PID.TID 0000.0001)                 2.935386689892191E+05,      /* I =191 */
(PID.TID 0000.0001)                 2.926545230536374E+05,      /* I =192 */
(PID.TID 0000.0001)                 2.647274964828301E+05,      /* I =193 */
(PID.TID 0000.0001)                 2.653456356424517E+05,      /* I =194 */
(PID.TID 0000.0001)                 2.671753991965412E+05,      /* I =195 */
(PID.TID 0000.0001)                 2.700508040612306E+05,      /* I =196 */
(PID.TID 0000.0001)                 2.737508146608168E+05,      /* I =197 */
(PID.TID 0000.0001)                 2.780276168082243E+05,      /* I =198 */
(PID.TID 0000.0001)                 2.826379708415628E+05,      /* I =199 */
(PID.TID 0000.0001)                 2.873620334559252E+05,      /* I =200 */
(PID.TID 0000.0001)                 2.920110325953347E+05,      /* I =201 */
(PID.TID 0000.0001)                 2.964277678938787E+05,      /* I =202 */
(PID.TID 0000.0001)                 3.004836638020456E+05,      /* I =203 */
(PID.TID 0000.0001)                 3.040748366383395E+05,      /* I =204 */
(PID.TID 0000.0001)                 3.071184425324030E+05,      /* I =205 */
(PID.TID 0000.0001)                 3.095497845682837E+05,      /* I =206 */
(PID.TID 0000.0001)                 3.113202383405265E+05,      /* I =207 */
(PID.TID 0000.0001)                 3.123958777280941E+05,      /* I =208 */
(PID.TID 0000.0001)                 3.127567211383312E+05,      /* I =209 */
(PID.TID 0000.0001)                 3.123958777280941E+05,      /* I =210 */
(PID.TID 0000.0001)                 3.113202383405265E+05,      /* I =211 */
(PID.TID 0000.0001)                 3.095497845682837E+05,      /* I =212 */
(PID.TID 0000.0001)                 3.071184425324030E+05,      /* I =213 */
(PID.TID 0000.0001)                 3.040748366383395E+05,      /* I =214 */
(PID.TID 0000.0001)                 3.004836638020456E+05,      /* I =215 */
(PID.TID 0000.0001)                 2.964277678938787E+05,      /* I =216 */
(PID.TID 0000.0001)                 2.920110325953347E+05,      /* I =217 */
(PID.TID 0000.0001)                 2.873620334559252E+05,      /* I =218 */
(PID.TID 0000.0001)                 2.826379708415628E+05,      /* I =219 */
(PID.TID 0000.0001)                 2.780276168082243E+05,      /* I =220 */
(PID.TID 0000.0001)                 2.737508146608168E+05,      /* I =221 */
(PID.TID 0000.0001)                 2.700508040612306E+05,      /* I =222 */
(PID.TID 0000.0001)                 2.671753991965412E+05,      /* I =223 */
(PID.TID 0000.0001)                 2.653456356424517E+05,      /* I =224 */
(PID.TID 0000.0001)                 2.133486626971531E+05,      /* I =225 */
(PID.TID 0000.0001)                 2.154101527595057E+05,      /* I =226 */
(PID.TID 0000.0001)                 2.211519075665486E+05,      /* I =227 */
(PID.TID 0000.0001)                 2.292508886976699E+05,      /* I =228 */
(PID.TID 0000.0001)                 2.384665985420439E+05,      /* I =229 */
(PID.TID 0000.0001)                 2.479326143289449E+05,      /* I =230 */
(PID.TID 0000.0001)                 2.571317856571183E+05,      /* I =231 */
(PID.TID 0000.0001)                 2.657743747017959E+05,      /* I =232 */
(PID.TID 0000.0001)                 2.736990267615226E+05,      /* I =233 */
(PID.TID 0000.0001)                 2.808126658182779E+05,      /* I =234 */
(PID.TID 0000.0001)                 2.870578357484073E+05,      /* I =235 */
(PID.TID 0000.0001)                 2.923958928385492E+05,      /* I =236 */
(PID.TID 0000.0001)                 2.967987247986380E+05,      /* I =237 */
(PID.TID 0000.0001)                 3.002449168090383E+05,      /* I =238 */
(PID.TID 0000.0001)                 3.027181755059779E+05,      /* I =239 */
(PID.TID 0000.0001)                 3.042068401906188E+05,      /* I =240 */
(PID.TID 0000.0001)                 3.047039405458409E+05,      /* I =241 */
(PID.TID 0000.0001)                 3.042068401906188E+05,      /* I =242 */
(PID.TID 0000.0001)                 3.027181755059779E+05,      /* I =243 */
(PID.TID 0000.0001)                 3.002449168090383E+05,      /* I =244 */
(PID.TID 0000.0001)                 2.967987247986380E+05,      /* I =245 */
(PID.TID 0000.0001)                 2.923958928385492E+05,      /* I =246 */
(PID.TID 0000.0001)                 2.870578357484073E+05,      /* I =247 */
(PID.TID 0000.0001)                 2.808126658182779E+05,      /* I =248 */
(PID.TID 0000.0001)                 2.736990267615226E+05,      /* I =249 */
(PID.TID 0000.0001)                 2.657743747017959E+05,      /* I =250 */
(PID.TID 0000.0001)                 2.571317856571183E+05,      /* I =251 */
(PID.TID 0000.0001)                 2.479326143289449E+05,      /* I =252 */
(PID.TID 0000.0001)                 2.384665985420439E+05,      /* I =253 */
(PID.TID 0000.0001)                 2.292508886976699E+05,      /* I =254 */
(PID.TID 0000.0001)                 2.211519075665486E+05,      /* I =255 */
(PID.TID 0000.0001)                 2.154101527595057E+05,      /* I =256 */
(PID.TID 0000.0001)                 8.015229982413632E+04,      /* I =257 */
(PID.TID 0000.0001)                 1.333130744933864E+05,      /* I =258 */
(PID.TID 0000.0001)                 1.691744868129062E+05,      /* I =259 */
(PID.TID 0000.0001)                 1.937548202849060E+05,      /* I =260 */
(PID.TID 0000.0001)                 2.130490056267208E+05,      /* I =261 */
(PID.TID 0000.0001)                 2.290479919481738E+05,      /* I =262 */
(PID.TID 0000.0001)                 2.426774358027003E+05,      /* I =263 */
(PID.TID 0000.0001)                 2.544372984215561E+05,      /* I =264 */
(PID.TID 0000.0001)                 2.646201463834826E+05,      /* I =265 */
(PID.TID 0000.0001)                 2.734046499619031E+05,      /* I =266 */
(PID.TID 0000.0001)                 2.809019351693761E+05,      /* I =267 */
(PID.TID 0000.0001)                 2.871811105274442E+05,      /* I =268 */
(PID.TID 0000.0001)                 2.922844849381675E+05,      /* I =269 */
(PID.TID 0000.0001)                 2.962371870847826E+05,      /* I =270 */
(PID.TID 0000.0001)                 2.990534755671296E+05,      /* I =271 */
(PID.TID 0000.0001)                 3.007409169495504E+05,      /* I =272 */
(PID.TID 0000.0001)                 3.013031486919771E+05,      /* I =273 */
(PID.TID 0000.0001)                 3.007409169495504E+05,      /* I =274 */
(PID.TID 0000.0001)                 2.990534755671296E+05,      /* I =275 */
(PID.TID 0000.0001)                 2.962371870847826E+05,      /* I =276 */
(PID.TID 0000.0001)                 2.922844849381675E+05,      /* I =277 */
(PID.TID 0000.0001)                 2.871811105274442E+05,      /* I =278 */
(PID.TID 0000.0001)                 2.809019351693761E+05,      /* I =279 */
(PID.TID 0000.0001)                 2.734046499619031E+05,      /* I =280 */
(PID.TID 0000.0001)                 2.646201463834826E+05,      /* I =281 */
(PID.TID 0000.0001)                 2.544372984215561E+05,      /* I =282 */
(PID.TID 0000.0001)                 2.426774358027003E+05,      /* I =283 */
(PID.TID 0000.0001)                 2.290479919481738E+05,      /* I =284 */
(PID.TID 0000.0001)                 2.130490056267208E+05,      /* I =285 */
(PID.TID 0000.0001)                 1.937548202849060E+05,      /* I =286 */
(PID.TID 0000.0001)                 1.691744868129062E+05,      /* I =287 */
(PID.TID 0000.0001)                 1.333130744933864E+05,      /* I =288 */
(PID.TID 0000.0001)                 2.133486626971531E+05,      /* I =289 */
(PID.TID 0000.0001)                 2.154101527595057E+05,      /* I =290 */
(PID.TID 0000.0001)                 2.211519075665486E+05,      /* I =291 */
(PID.TID 0000.0001)                 2.292508886976699E+05,      /* I =292 */
(PID.TID 0000.0001)                 2.384665985420439E+05,      /* I =293 */
(PID.TID 0000.0001)                 2.479326143289449E+05,      /* I =294 */
(PID.TID 0000.0001)                 2.571317856571183E+05,      /* I =295 */
(PID.TID 0000.0001)                 2.657743747017959E+05,      /* I =296 */
(PID.TID 0000.0001)                 2.736990267615226E+05,      /* I =297 */
(PID.TID 0000.0001)                 2.808126658182779E+05,      /* I =298 */
(PID.TID 0000.0001)                 2.870578357484073E+05,      /* I =299 */
(PID.TID 0000.0001)                 2.923958928385492E+05,      /* I =300 */
(PID.TID 0000.0001)                 2.967987247986380E+05,      /* I =301 */
(PID.TID 0000.0001)                 3.002449168090383E+05,      /* I =302 */
(PID.TID 0000.0001)                 3.027181755059779E+05,      /* I =303 */
(PID.TID 0000.0001)                 3.042068401906188E+05,      /* I =304 */
(PID.TID 0000.0001)                 3.047039405458409E+05,      /* I =305 */
(PID.TID 0000.0001)                 3.042068401906188E+05,      /* I =306 */
(PID.TID 0000.0001)                 3.027181755059779E+05,      /* I =307 */
(PID.TID 0000.0001)                 3.002449168090383E+05,      /* I =308 */
(PID.TID 0000.0001)                 2.967987247986380E+05,      /* I =309 */
(PID.TID 0000.0001)                 2.923958928385492E+05,      /* I =310 */
(PID.TID 0000.0001)                 2.870578357484073E+05,      /* I =311 */
(PID.TID 0000.0001)                 2.808126658182779E+05,      /* I =312 */
(PID.TID 0000.0001)                 2.736990267615226E+05,      /* I =313 */
(PID.TID 0000.0001)                 2.657743747017959E+05,      /* I =314 */
(PID.TID 0000.0001)                 2.571317856571183E+05,      /* I =315 */
(PID.TID 0000.0001)                 2.479326143289449E+05,      /* I =316 */
(PID.TID 0000.0001)                 2.384665985420439E+05,      /* I =317 */
(PID.TID 0000.0001)                 2.292508886976699E+05,      /* I =318 */
(PID.TID 0000.0001)                 2.211519075665486E+05,      /* I =319 */
(PID.TID 0000.0001)                 2.154101527595057E+05,      /* I =320 */
(PID.TID 0000.0001)                 2.647274964828301E+05,      /* I =321 */
(PID.TID 0000.0001)                 2.653456356424517E+05,      /* I =322 */
(PID.TID 0000.0001)                 2.671753991965412E+05,      /* I =323 */
(PID.TID 0000.0001)                 2.700508040612306E+05,      /* I =324 */
(PID.TID 0000.0001)                 2.737508146608168E+05,      /* I =325 */
(PID.TID 0000.0001)                 2.780276168082243E+05,      /* I =326 */
(PID.TID 0000.0001)                 2.826379708415628E+05,      /* I =327 */
(PID.TID 0000.0001)                 2.873620334559252E+05,      /* I =328 */
(PID.TID 0000.0001)                 2.920110325953347E+05,      /* I =329 */
(PID.TID 0000.0001)                 2.964277678938787E+05,      /* I =330 */
(PID.TID 0000.0001)                 3.004836638020456E+05,      /* I =331 */
(PID.TID 0000.0001)                 3.040748366383395E+05,      /* I =332 */
(PID.TID 0000.0001)                 3.071184425324030E+05,      /* I =333 */
(PID.TID 0000.0001)                 3.095497845682837E+05,      /* I =334 */
(PID.TID 0000.0001)                 3.113202383405265E+05,      /* I =335 */
(PID.TID 0000.0001)                 3.123958777280941E+05,      /* I =336 */
(PID.TID 0000.0001)                 3.127567211383312E+05,      /* I =337 */
(PID.TID 0000.0001)                 3.123958777280941E+05,      /* I =338 */
(PID.TID 0000.0001)                 3.113202383405265E+05,      /* I =339 */
(PID.TID 0000.0001)                 3.095497845682837E+05,      /* I =340 */
(PID.TID 0000.0001)                 3.071184425324030E+05,      /* I =341 */
(PID.TID 0000.0001)                 3.040748366383395E+05,      /* I =342 */
(PID.TID 0000.0001)                 3.004836638020456E+05,      /* I =343 */
(PID.TID 0000.0001)                 2.964277678938787E+05,      /* I =344 */
(PID.TID 0000.0001)                 2.920110325953347E+05,      /* I =345 */
(PID.TID 0000.0001)                 2.873620334559252E+05,      /* I =346 */
(PID.TID 0000.0001)                 2.826379708415628E+05,      /* I =347 */
(PID.TID 0000.0001)                 2.780276168082243E+05,      /* I =348 */
(PID.TID 0000.0001)                 2.737508146608168E+05,      /* I =349 */
(PID.TID 0000.0001)                 2.700508040612306E+05,      /* I =350 */
(PID.TID 0000.0001)                 2.671753991965412E+05,      /* I =351 */
(PID.TID 0000.0001)                 2.653456356424517E+05,      /* I =352 */
(PID.TID 0000.0001)                 2.923567890694162E+05,      /* I =353 */
(PID.TID 0000.0001)                 2.926545230536374E+05,      /* I =354 */
(PID.TID 0000.0001)                 2.935386689892191E+05,      /* I =355 */
(PID.TID 0000.0001)                 2.949617148863616E+05,      /* I =356 */
(PID.TID 0000.0001)                 2.968528632519549E+05,      /* I =357 */
(PID.TID 0000.0001)                 2.991218910822632E+05,      /* I =358 */
(PID.TID 0000.0001)                 3.016659012529000E+05,      /* I =359 */
(PID.TID 0000.0001)                 3.043758085573489E+05,      /* I =360 */
(PID.TID 0000.0001)                 3.071419371354089E+05,      /* I =361 */
(PID.TID 0000.0001)                 3.098584812990768E+05,      /* I =362 */
(PID.TID 0000.0001)                 3.124268635934817E+05,      /* I =363 */
(PID.TID 0000.0001)                 3.147581742806108E+05,      /* I =364 */
(PID.TID 0000.0001)                 3.167749168862456E+05,      /* I =365 */
(PID.TID 0000.0001)                 3.184122585888001E+05,      /* I =366 */
(PID.TID 0000.0001)                 3.196189316921739E+05,      /* I =367 */
(PID.TID 0000.0001)                 3.203578790063228E+05,      /* I =368 */
(PID.TID 0000.0001)                 3.206067683235888E+05,      /* I =369 */
(PID.TID 0000.0001)                 3.203578790063228E+05,      /* I =370 */
(PID.TID 0000.0001)                 3.196189316921739E+05,      /* I =371 */
(PID.TID 0000.0001)                 3.184122585888001E+05,      /* I =372 */
(PID.TID 0000.0001)                 3.167749168862456E+05,      /* I =373 */
(PID.TID 0000.0001)                 3.147581742806108E+05,      /* I =374 */
(PID.TID 0000.0001)                 3.124268635934817E+05,      /* I =375 */
(PID.TID 0000.0001)                 3.098584812990768E+05,      /* I =376 */
(PID.TID 0000.0001)                 3.071419371354089E+05,      /* I =377 */
(PID.TID 0000.0001)                 3.043758085573489E+05,      /* I =378 */
(PID.TID 0000.0001)                 3.016659012529000E+05,      /* I =379 */
(PID.TID 0000.0001)                 2.991218910822632E+05,      /* I =380 */
(PID.TID 0000.0001)                 2.968528632519549E+05,      /* I =381 */
(PID.TID 0000.0001)                 2.949617148863616E+05,      /* I =382 */
(PID.TID 0000.0001)                 2.935386689892191E+05,      /* I =383 */
(PID.TID 0000.0001)                 2.926545230536374E+05,      /* I =384 */
(PID.TID 0000.0001)                 3.013686170436881E+05,      /* I =385 */
(PID.TID 0000.0001)                 3.015922136961168E+05,      /* I =386 */
(PID.TID 0000.0001)                 3.022533948177109E+05,      /* I =387 */
(PID.TID 0000.0001)                 3.033238888442880E+05,      /* I =388 */
(PID.TID 0000.0001)                 3.047583645125296E+05,      /* I =389 */
(PID.TID 0000.0001)                 3.064969104248934E+05,      /* I =390 */
(PID.TID 0000.0001)                 3.084681464323149E+05,      /* I =391 */
(PID.TID 0000.0001)                 3.105926959662063E+05,      /* I =392 */
(PID.TID 0000.0001)                 3.127867656729039E+05,      /* I =393 */
(PID.TID 0000.0001)                 3.149656255235069E+05,      /* I =394 */
(PID.TID 0000.0001)                 3.170468416979250E+05,      /* I =395 */
(PID.TID 0000.0001)                 3.189531711639232E+05,      /* I =396 */
(PID.TID 0000.0001)                 3.206150718566154E+05,      /* I =397 */
(PID.TID 0000.0001)                 3.219728125807783E+05,      /* I =398 */
(PID.TID 0000.0001)                 3.229781834933111E+05,      /* I =399 */
(PID.TID 0000.0001)                 3.235958148230841E+05,      /* I =400 */
(PID.TID 0000.0001)                 3.238041816275029E+05,      /* I =401 */
(PID.TID 0000.0001)                 3.235958148230841E+05,      /* I =402 */
(PID.TID 0000.0001)                 3.229781834933111E+05,      /* I =403 */
(PID.TID 0000.0001)                 3.219728125807783E+05,      /* I =404 */
(PID.TID 0000.0001)                 3.206150718566154E+05,      /* I =405 */
(PID.TID 0000.0001)                 3.189531711639232E+05,      /* I =406 */
(PID.TID 0000.0001)                 3.170468416979250E+05,      /* I =407 */
(PID.TID 0000.0001)                 3.149656255235069E+05,      /* I =408 */
(PID.TID 0000.0001)                 3.127867656729039E+05,      /* I =409 */
(PID.TID 0000.0001)                 3.105926959662063E+05,      /* I =410 */
(PID.TID 0000.0001)                 3.084681464323149E+05,      /* I =411 */
(PID.TID 0000.0001)                 3.064969104248934E+05,      /* I =412 */
(PID.TID 0000.0001)                 3.047583645125296E+05,      /* I =413 */
(PID.TID 0000.0001)                 3.033238888442880E+05,      /* I =414 */
(PID.TID 0000.0001)                 3.022533948177109E+05,      /* I =415 */
(PID.TID 0000.0001)                 3.015922136961168E+05,      /* I =416 */
(PID.TID 0000.0001)                 2.923567890694162E+05,      /* I =417 */
(PID.TID 0000.0001)                 2.926545230536374E+05,      /* I =418 */
(PID.TID 0000.0001)                 2.935386689892191E+05,      /* I =419 */
(PID.TID 0000.0001)                 2.949617148863616E+05,      /* I =420 */
(PID.TID 0000.0001)                 2.968528632519549E+05,      /* I =421 */
(PID.TID 0000.0001)                 2.991218910822632E+05,      /* I =422 */
(PID.TID 0000.0001)                 3.016659012529000E+05,      /* I =423 */
(PID.TID 0000.0001)                 3.043758085573489E+05,      /* I =424 */
(PID.TID 0000.0001)                 3.071419371354089E+05,      /* I =425 */
(PID.TID 0000.0001)                 3.098584812990768E+05,      /* I =426 */
(PID.TID 0000.0001)                 3.124268635934817E+05,      /* I =427 */
(PID.TID 0000.0001)                 3.147581742806108E+05,      /* I =428 */
(PID.TID 0000.0001)                 3.167749168862456E+05,      /* I =429 */
(PID.TID 0000.0001)                 3.184122585888001E+05,      /* I =430 */
(PID.TID 0000.0001)                 3.196189316921739E+05,      /* I =431 */
(PID.TID 0000.0001)                 3.203578790063228E+05,      /* I =432 */
(PID.TID 0000.0001)                 3.206067683235888E+05,      /* I =433 */
(PID.TID 0000.0001)                 3.203578790063228E+05,      /* I =434 */
(PID.TID 0000.0001)                 3.196189316921739E+05,      /* I =435 */
(PID.TID 0000.0001)                 3.184122585888001E+05,      /* I =436 */
(PID.TID 0000.0001)                 3.167749168862456E+05,      /* I =437 */
(PID.TID 0000.0001)                 3.147581742806108E+05,      /* I =438 */
(PID.TID 0000.0001)                 3.124268635934817E+05,      /* I =439 */
(PID.TID 0000.0001)                 3.098584812990768E+05,      /* I =440 */
(PID.TID 0000.0001)                 3.071419371354089E+05,      /* I =441 */
(PID.TID 0000.0001)                 3.043758085573489E+05,      /* I =442 */
(PID.TID 0000.0001)                 3.016659012529000E+05,      /* I =443 */
(PID.TID 0000.0001)                 2.991218910822632E+05,      /* I =444 */
(PID.TID 0000.0001)                 2.968528632519549E+05,      /* I =445 */
(PID.TID 0000.0001)                 2.949617148863616E+05,      /* I =446 */
(PID.TID 0000.0001)                 2.935386689892191E+05,      /* I =447 */
(PID.TID 0000.0001)                 2.926545230536374E+05,      /* I =448 */
(PID.TID 0000.0001)                 2.647274964828301E+05,      /* I =449 */
(PID.TID 0000.0001)                 2.653456356424517E+05,      /* I =450 */
(PID.TID 0000.0001)                 2.671753991965412E+05,      /* I =451 */
(PID.TID 0000.0001)                 2.700508040612306E+05,      /* I =452 */
(PID.TID 0000.0001)                 2.737508146608168E+05,      /* I =453 */
(PID.TID 0000.0001)                 2.780276168082243E+05,      /* I =454 */
(PID.TID 0000.0001)                 2.826379708415628E+05,      /* I =455 */
(PID.TID 0000.0001)                 2.873620334559252E+05,      /* I =456 */
(PID.TID 0000.0001)                 2.920110325953347E+05,      /* I =457 */
(PID.TID 0000.0001)                 2.964277678938787E+05,      /* I =458 */
(PID.TID 0000.0001)                 3.004836638020456E+05,      /* I =459 */
(PID.TID 0000.0001)                 3.040748366383395E+05,      /* I =460 */
(PID.TID 0000.0001)                 3.071184425324030E+05,      /* I =461 */
(PID.TID 0000.0001)                 3.095497845682837E+05,      /* I =462 */
(PID.TID 0000.0001)                 3.113202383405265E+05,      /* I =463 */
(PID.TID 0000.0001)                 3.123958777280941E+05,      /* I =464 */
(PID.TID 0000.0001)                 3.127567211383312E+05,      /* I =465 */
(PID.TID 0000.0001)                 3.123958777280941E+05,      /* I =466 */
(PID.TID 0000.0001)                 3.113202383405265E+05,      /* I =467 */
(PID.TID 0000.0001)                 3.095497845682837E+05,      /* I =468 */
(PID.TID 0000.0001)                 3.071184425324030E+05,      /* I =469 */
(PID.TID 0000.0001)                 3.040748366383395E+05,      /* I =470 */
(PID.TID 0000.0001)                 3.004836638020456E+05,      /* I =471 */
(PID.TID 0000.0001)                 2.964277678938787E+05,      /* I =472 */
(PID.TID 0000.0001)                 2.920110325953347E+05,      /* I =473 */
(PID.TID 0000.0001)                 2.873620334559252E+05,      /* I =474 */
(PID.TID 0000.0001)                 2.826379708415628E+05,      /* I =475 */
(PID.TID 0000.0001)                 2.780276168082243E+05,      /* I =476 */
(PID.TID 0000.0001)                 2.737508146608168E+05,      /* I =477 */
(PID.TID 0000.0001)                 2.700508040612306E+05,      /* I =478 */
(PID.TID 0000.0001)                 2.671753991965412E+05,      /* I =479 */
(PID.TID 0000.0001)                 2.653456356424517E+05,      /* I =480 */
(PID.TID 0000.0001)                 2.133486626971531E+05,      /* I =481 */
(PID.TID 0000.0001)                 2.154101527595057E+05,      /* I =482 */
(PID.TID 0000.0001)                 2.211519075665486E+05,      /* I =483 */
(PID.TID 0000.0001)                 2.292508886976699E+05,      /* I =484 */
(PID.TID 0000.0001)                 2.384665985420439E+05,      /* I =485 */
(PID.TID 0000.0001)                 2.479326143289449E+05,      /* I =486 */
(PID.TID 0000.0001)                 2.571317856571183E+05,      /* I =487 */
(PID.TID 0000.0001)                 2.657743747017959E+05,      /* I =488 */
(PID.TID 0000.0001)                 2.736990267615226E+05,      /* I =489 */
(PID.TID 0000.0001)                 2.808126658182779E+05,      /* I =490 */
(PID.TID 0000.0001)                 2.870578357484073E+05,      /* I =491 */
(PID.TID 0000.0001)                 2.923958928385492E+05,      /* I =492 */
(PID.TID 0000.0001)                 2.967987247986380E+05,      /* I =493 */
(PID.TID 0000.0001)                 3.002449168090383E+05,      /* I =494 */
(PID.TID 0000.0001)                 3.027181755059779E+05,      /* I =495 */
(PID.TID 0000.0001)                 3.042068401906188E+05,      /* I =496 */
(PID.TID 0000.0001)                 3.047039405458409E+05,      /* I =497 */
(PID.TID 0000.0001)                 3.042068401906188E+05,      /* I =498 */
(PID.TID 0000.0001)                 3.027181755059779E+05,      /* I =499 */
(PID.TID 0000.0001)                 3.002449168090383E+05,      /* I =500 */
(PID.TID 0000.0001)                 2.967987247986380E+05,      /* I =501 */
(PID.TID 0000.0001)                 2.923958928385492E+05,      /* I =502 */
(PID.TID 0000.0001)                 2.870578357484073E+05,      /* I =503 */
(PID.TID 0000.0001)                 2.808126658182779E+05,      /* I =504 */
(PID.TID 0000.0001)                 2.736990267615226E+05,      /* I =505 */
(PID.TID 0000.0001)                 2.657743747017959E+05,      /* I =506 */
(PID.TID 0000.0001)                 2.571317856571183E+05,      /* I =507 */
(PID.TID 0000.0001)                 2.479326143289449E+05,      /* I =508 */
(PID.TID 0000.0001)                 2.384665985420439E+05,      /* I =509 */
(PID.TID 0000.0001)                 2.292508886976699E+05,      /* I =510 */
(PID.TID 0000.0001)                 2.211519075665486E+05,      /* I =511 */
(PID.TID 0000.0001)                 2.154101527595057E+05,      /* I =512 */
(PID.TID 0000.0001)                 8.015229982413632E+04,      /* I =513 */
(PID.TID 0000.0001)                 1.333130744933864E+05,      /* I =514 */
(PID.TID 0000.0001)                 1.691744868129062E+05,      /* I =515 */
(PID.TID 0000.0001)                 1.937548202849060E+05,      /* I =516 */
(PID.TID 0000.0001)                 2.130490056267208E+05,      /* I =517 */
(PID.TID 0000.0001)                 2.290479919481738E+05,      /* I =518 */
(PID.TID 0000.0001)                 2.426774358027003E+05,      /* I =519 */
(PID.TID 0000.0001)                 2.544372984215561E+05,      /* I =520 */
(PID.TID 0000.0001)                 2.646201463834826E+05,      /* I =521 */
(PID.TID 0000.0001)                 2.734046499619031E+05,      /* I =522 */
(PID.TID 0000.0001)                 2.809019351693761E+05,      /* I =523 */
(PID.TID 0000.0001)                 2.871811105274442E+05,      /* I =524 */
(PID.TID 0000.0001)                 2.922844849381675E+05,      /* I =525 */
(PID.TID 0000.0001)                 2.962371870847826E+05,      /* I =526 */
(PID.TID 0000.0001)                 2.990534755671296E+05,      /* I =527 */
(PID.TID 0000.0001)                 3.007409169495504E+05,      /* I =528 */
(PID.TID 0000.0001)                 3.013031486919771E+05,      /* I =529 */
(PID.TID 0000.0001)                 3.007409169495504E+05,      /* I =530 */
(PID.TID 0000.0001)                 2.990534755671296E+05,      /* I =531 */
(PID.TID 0000.0001)                 2.962371870847826E+05,      /* I =532 */
(PID.TID 0000.0001)                 2.922844849381675E+05,      /* I =533 */
(PID.TID 0000.0001)                 2.871811105274442E+05,      /* I =534 */
(PID.TID 0000.0001)                 2.809019351693761E+05,      /* I =535 */
(PID.TID 0000.0001)                 2.734046499619031E+05,      /* I =536 */
(PID.TID 0000.0001)                 2.646201463834826E+05,      /* I =537 */
(PID.TID 0000.0001)                 2.544372984215561E+05,      /* I =538 */
(PID.TID 0000.0001)                 2.426774358027003E+05,      /* I =539 */
(PID.TID 0000.0001)                 2.290479919481738E+05,      /* I =540 */
(PID.TID 0000.0001)                 2.130490056267208E+05,      /* I =541 */
(PID.TID 0000.0001)                 1.937548202849060E+05,      /* I =542 */
(PID.TID 0000.0001)                 1.691744868129062E+05,      /* I =543 */
(PID.TID 0000.0001)                 1.333130744933864E+05,      /* I =544 */
(PID.TID 0000.0001)                 2.133486626971531E+05,      /* I =545 */
(PID.TID 0000.0001)                 2.154101527595057E+05,      /* I =546 */
(PID.TID 0000.0001)                 2.211519075665486E+05,      /* I =547 */
(PID.TID 0000.0001)                 2.292508886976699E+05,      /* I =548 */
(PID.TID 0000.0001)                 2.384665985420439E+05,      /* I =549 */
(PID.TID 0000.0001)                 2.479326143289449E+05,      /* I =550 */
(PID.TID 0000.0001)                 2.571317856571183E+05,      /* I =551 */
(PID.TID 0000.0001)                 2.657743747017959E+05,      /* I =552 */
(PID.TID 0000.0001)                 2.736990267615226E+05,      /* I =553 */
(PID.TID 0000.0001)                 2.808126658182779E+05,      /* I =554 */
(PID.TID 0000.0001)                 2.870578357484073E+05,      /* I =555 */
(PID.TID 0000.0001)                 2.923958928385492E+05,      /* I =556 */
(PID.TID 0000.0001)                 2.967987247986380E+05,      /* I =557 */
(PID.TID 0000.0001)                 3.002449168090383E+05,      /* I =558 */
(PID.TID 0000.0001)                 3.027181755059779E+05,      /* I =559 */
(PID.TID 0000.0001)                 3.042068401906188E+05,      /* I =560 */
(PID.TID 0000.0001)                 3.047039405458409E+05,      /* I =561 */
(PID.TID 0000.0001)                 3.042068401906188E+05,      /* I =562 */
(PID.TID 0000.0001)                 3.027181755059779E+05,      /* I =563 */
(PID.TID 0000.0001)                 3.002449168090383E+05,      /* I =564 */
(PID.TID 0000.0001)                 2.967987247986380E+05,      /* I =565 */
(PID.TID 0000.0001)                 2.923958928385492E+05,      /* I =566 */
(PID.TID 0000.0001)                 2.870578357484073E+05,      /* I =567 */
(PID.TID 0000.0001)                 2.808126658182779E+05,      /* I =568 */
(PID.TID 0000.0001)                 2.736990267615226E+05,      /* I =569 */
(PID.TID 0000.0001)                 2.657743747017959E+05,      /* I =570 */
(PID.TID 0000.0001)                 2.571317856571183E+05,      /* I =571 */
(PID.TID 0000.0001)                 2.479326143289449E+05,      /* I =572 */
(PID.TID 0000.0001)                 2.384665985420439E+05,      /* I =573 */
(PID.TID 0000.0001)                 2.292508886976699E+05,      /* I =574 */
(PID.TID 0000.0001)                 2.211519075665486E+05,      /* I =575 */
(PID.TID 0000.0001)                 2.154101527595057E+05,      /* I =576 */
(PID.TID 0000.0001)                 2.647274964828301E+05,      /* I =577 */
(PID.TID 0000.0001)                 2.653456356424517E+05,      /* I =578 */
(PID.TID 0000.0001)                 2.671753991965412E+05,      /* I =579 */
(PID.TID 0000.0001)                 2.700508040612306E+05,      /* I =580 */
(PID.TID 0000.0001)                 2.737508146608168E+05,      /* I =581 */
(PID.TID 0000.0001)                 2.780276168082243E+05,      /* I =582 */
(PID.TID 0000.0001)                 2.826379708415628E+05,      /* I =583 */
(PID.TID 0000.0001)                 2.873620334559252E+05,      /* I =584 */
(PID.TID 0000.0001)                 2.920110325953347E+05,      /* I =585 */
(PID.TID 0000.0001)                 2.964277678938787E+05,      /* I =586 */
(PID.TID 0000.0001)                 3.004836638020456E+05,      /* I =587 */
(PID.TID 0000.0001)                 3.040748366383395E+05,      /* I =588 */
(PID.TID 0000.0001)                 3.071184425324030E+05,      /* I =589 */
(PID.TID 0000.0001)                 3.095497845682837E+05,      /* I =590 */
(PID.TID 0000.0001)                 3.113202383405265E+05,      /* I =591 */
(PID.TID 0000.0001)                 3.123958777280941E+05,      /* I =592 */
(PID.TID 0000.0001)                 3.127567211383312E+05,      /* I =593 */
(PID.TID 0000.0001)                 3.123958777280941E+05,      /* I =594 */
(PID.TID 0000.0001)                 3.113202383405265E+05,      /* I =595 */
(PID.TID 0000.0001)                 3.095497845682837E+05,      /* I =596 */
(PID.TID 0000.0001)                 3.071184425324030E+05,      /* I =597 */
(PID.TID 0000.0001)                 3.040748366383395E+05,      /* I =598 */
(PID.TID 0000.0001)                 3.004836638020456E+05,      /* I =599 */
(PID.TID 0000.0001)                 2.964277678938787E+05,      /* I =600 */
(PID.TID 0000.0001)                 2.920110325953347E+05,      /* I =601 */
(PID.TID 0000.0001)                 2.873620334559252E+05,      /* I =602 */
(PID.TID 0000.0001)                 2.826379708415628E+05,      /* I =603 */
(PID.TID 0000.0001)                 2.780276168082243E+05,      /* I =604 */
(PID.TID 0000.0001)                 2.737508146608168E+05,      /* I =605 */
(PID.TID 0000.0001)                 2.700508040612306E+05,      /* I =606 */
(PID.TID 0000.0001)                 2.671753991965412E+05,      /* I =607 */
(PID.TID 0000.0001)                 2.653456356424517E+05,      /* I =608 */
(PID.TID 0000.0001)                 2.923567890694162E+05,      /* I =609 */
(PID.TID 0000.0001)                 2.926545230536374E+05,      /* I =610 */
(PID.TID 0000.0001)                 2.935386689892191E+05,      /* I =611 */
(PID.TID 0000.0001)                 2.949617148863616E+05,      /* I =612 */
(PID.TID 0000.0001)                 2.968528632519549E+05,      /* I =613 */
(PID.TID 0000.0001)                 2.991218910822632E+05,      /* I =614 */
(PID.TID 0000.0001)                 3.016659012529000E+05,      /* I =615 */
(PID.TID 0000.0001)                 3.043758085573489E+05,      /* I =616 */
(PID.TID 0000.0001)                 3.071419371354089E+05,      /* I =617 */
(PID.TID 0000.0001)                 3.098584812990768E+05,      /* I =618 */
(PID.TID 0000.0001)                 3.124268635934817E+05,      /* I =619 */
(PID.TID 0000.0001)                 3.147581742806108E+05,      /* I =620 */
(PID.TID 0000.0001)                 3.167749168862456E+05,      /* I =621 */
(PID.TID 0000.0001)                 3.184122585888001E+05,      /* I =622 */
(PID.TID 0000.0001)                 3.196189316921739E+05,      /* I =623 */
(PID.TID 0000.0001)                 3.203578790063228E+05,      /* I =624 */
(PID.TID 0000.0001)                 3.206067683235888E+05,      /* I =625 */
(PID.TID 0000.0001)                 3.203578790063228E+05,      /* I =626 */
(PID.TID 0000.0001)                 3.196189316921739E+05,      /* I =627 */
(PID.TID 0000.0001)                 3.184122585888001E+05,      /* I =628 */
(PID.TID 0000.0001)                 3.167749168862456E+05,      /* I =629 */
(PID.TID 0000.0001)                 3.147581742806108E+05,      /* I =630 */
(PID.TID 0000.0001)                 3.124268635934817E+05,      /* I =631 */
(PID.TID 0000.0001)                 3.098584812990768E+05,      /* I =632 */
(PID.TID 0000.0001)                 3.071419371354089E+05,      /* I =633 */
(PID.TID 0000.0001)                 3.043758085573489E+05,      /* I =634 */
(PID.TID 0000.0001)                 3.016659012529000E+05,      /* I =635 */
(PID.TID 0000.0001)                 2.991218910822632E+05,      /* I =636 */
(PID.TID 0000.0001)                 2.968528632519549E+05,      /* I =637 */
(PID.TID 0000.0001)                 2.949617148863616E+05,      /* I =638 */
(PID.TID 0000.0001)                 2.935386689892191E+05,      /* I =639 */
(PID.TID 0000.0001)                 2.926545230536374E+05,      /* I =640 */
(PID.TID 0000.0001)                 3.013686170436881E+05,      /* I =641 */
(PID.TID 0000.0001)                 3.015922136961168E+05,      /* I =642 */
(PID.TID 0000.0001)                 3.022533948177109E+05,      /* I =643 */
(PID.TID 0000.0001)                 3.033238888442880E+05,      /* I =644 */
(PID.TID 0000.0001)                 3.047583645125296E+05,      /* I =645 */
(PID.TID 0000.0001)                 3.064969104248934E+05,      /* I =646 */
(PID.TID 0000.0001)                 3.084681464323149E+05,      /* I =647 */
(PID.TID 0000.0001)                 3.105926959662063E+05,      /* I =648 */
(PID.TID 0000.0001)                 3.127867656729039E+05,      /* I =649 */
(PID.TID 0000.0001)                 3.149656255235069E+05,      /* I =650 */
(PID.TID 0000.0001)                 3.170468416979250E+05,      /* I =651 */
(PID.TID 0000.0001)                 3.189531711639232E+05,      /* I =652 */
(PID.TID 0000.0001)                 3.206150718566154E+05,      /* I =653 */
(PID.TID 0000.0001)                 3.219728125807783E+05,      /* I =654 */
(PID.TID 0000.0001)                 3.229781834933111E+05,      /* I =655 */
(PID.TID 0000.0001)                 3.235958148230841E+05,      /* I =656 */
(PID.TID 0000.0001)                 3.238041816275029E+05,      /* I =657 */
(PID.TID 0000.0001)                 3.235958148230841E+05,      /* I =658 */
(PID.TID 0000.0001)                 3.229781834933111E+05,      /* I =659 */
(PID.TID 0000.0001)                 3.219728125807783E+05,      /* I =660 */
(PID.TID 0000.0001)                 3.206150718566154E+05,      /* I =661 */
(PID.TID 0000.0001)                 3.189531711639232E+05,      /* I =662 */
(PID.TID 0000.0001)                 3.170468416979250E+05,      /* I =663 */
(PID.TID 0000.0001)                 3.149656255235069E+05,      /* I =664 */
(PID.TID 0000.0001)                 3.127867656729039E+05,      /* I =665 */
(PID.TID 0000.0001)                 3.105926959662063E+05,      /* I =666 */
(PID.TID 0000.0001)                 3.084681464323149E+05,      /* I =667 */
(PID.TID 0000.0001)                 3.064969104248934E+05,      /* I =668 */
(PID.TID 0000.0001)                 3.047583645125296E+05,      /* I =669 */
(PID.TID 0000.0001)                 3.033238888442880E+05,      /* I =670 */
(PID.TID 0000.0001)                 3.022533948177109E+05,      /* I =671 */
(PID.TID 0000.0001)                 3.015922136961168E+05,      /* I =672 */
(PID.TID 0000.0001)                 2.923567890694162E+05,      /* I =673 */
(PID.TID 0000.0001)                 2.926545230536374E+05,      /* I =674 */
(PID.TID 0000.0001)                 2.935386689892191E+05,      /* I =675 */
(PID.TID 0000.0001)                 2.949617148863616E+05,      /* I =676 */
(PID.TID 0000.0001)                 2.968528632519549E+05,      /* I =677 */
(PID.TID 0000.0001)                 2.991218910822632E+05,      /* I =678 */
(PID.TID 0000.0001)                 3.016659012529000E+05,      /* I =679 */
(PID.TID 0000.0001)                 3.043758085573489E+05,      /* I =680 */
(PID.TID 0000.0001)                 3.071419371354089E+05,      /* I =681 */
(PID.TID 0000.0001)                 3.098584812990768E+05,      /* I =682 */
(PID.TID 0000.0001)                 3.124268635934817E+05,      /* I =683 */
(PID.TID 0000.0001)                 3.147581742806108E+05,      /* I =684 */
(PID.TID 0000.0001)                 3.167749168862456E+05,      /* I =685 */
(PID.TID 0000.0001)                 3.184122585888001E+05,      /* I =686 */
(PID.TID 0000.0001)                 3.196189316921739E+05,      /* I =687 */
(PID.TID 0000.0001)                 3.203578790063228E+05,      /* I =688 */
(PID.TID 0000.0001)                 3.206067683235888E+05,      /* I =689 */
(PID.TID 0000.0001)                 3.203578790063228E+05,      /* I =690 */
(PID.TID 0000.0001)                 3.196189316921739E+05,      /* I =691 */
(PID.TID 0000.0001)                 3.184122585888001E+05,      /* I =692 */
(PID.TID 0000.0001)                 3.167749168862456E+05,      /* I =693 */
(PID.TID 0000.0001)                 3.147581742806108E+05,      /* I =694 */
(PID.TID 0000.0001)                 3.124268635934817E+05,      /* I =695 */
(PID.TID 0000.0001)                 3.098584812990768E+05,      /* I =696 */
(PID.TID 0000.0001)                 3.071419371354089E+05,      /* I =697 */
(PID.TID 0000.0001)                 3.043758085573489E+05,      /* I =698 */
(PID.TID 0000.0001)                 3.016659012529000E+05,      /* I =699 */
(PID.TID 0000.0001)                 2.991218910822632E+05,      /* I =700 */
(PID.TID 0000.0001)                 2.968528632519549E+05,      /* I =701 */
(PID.TID 0000.0001)                 2.949617148863616E+05,      /* I =702 */
(PID.TID 0000.0001)                 2.935386689892191E+05,      /* I =703 */
(PID.TID 0000.0001)                 2.926545230536374E+05,      /* I =704 */
(PID.TID 0000.0001)                 2.647274964828301E+05,      /* I =705 */
(PID.TID 0000.0001)                 2.653456356424517E+05,      /* I =706 */
(PID.TID 0000.0001)                 2.671753991965412E+05,      /* I =707 */
(PID.TID 0000.0001)                 2.700508040612306E+05,      /* I =708 */
(PID.TID 0000.0001)                 2.737508146608168E+05,      /* I =709 */
(PID.TID 0000.0001)                 2.780276168082243E+05,      /* I =710 */
(PID.TID 0000.0001)                 2.826379708415628E+05,      /* I =711 */
(PID.TID 0000.0001)                 2.873620334559252E+05,      /* I =712 */
(PID.TID 0000.0001)                 2.920110325953347E+05,      /* I =713 */
(PID.TID 0000.0001)                 2.964277678938787E+05,      /* I =714 */
(PID.TID 0000.0001)                 3.004836638020456E+05,      /* I =715 */
(PID.TID 0000.0001)                 3.040748366383395E+05,      /* I =716 */
(PID.TID 0000.0001)                 3.071184425324030E+05,      /* I =717 */
(PID.TID 0000.0001)                 3.095497845682837E+05,      /* I =718 */
(PID.TID 0000.0001)                 3.113202383405265E+05,      /* I =719 */
(PID.TID 0000.0001)                 3.123958777280941E+05,      /* I =720 */
(PID.TID 0000.0001)                 3.127567211383312E+05,      /* I =721 */
(PID.TID 0000.0001)                 3.123958777280941E+05,      /* I =722 */
(PID.TID 0000.0001)                 3.113202383405265E+05,      /* I =723 */
(PID.TID 0000.0001)                 3.095497845682837E+05,      /* I =724 */
(PID.TID 0000.0001)                 3.071184425324030E+05,      /* I =725 */
(PID.TID 0000.0001)                 3.040748366383395E+05,      /* I =726 */
(PID.TID 0000.0001)                 3.004836638020456E+05,      /* I =727 */
(PID.TID 0000.0001)                 2.964277678938787E+05,      /* I =728 */
(PID.TID 0000.0001)                 2.920110325953347E+05,      /* I =729 */
(PID.TID 0000.0001)                 2.873620334559252E+05,      /* I =730 */
(PID.TID 0000.0001)                 2.826379708415628E+05,      /* I =731 */
(PID.TID 0000.0001)                 2.780276168082243E+05,      /* I =732 */
(PID.TID 0000.0001)                 2.737508146608168E+05,      /* I =733 */
(PID.TID 0000.0001)                 2.700508040612306E+05,      /* I =734 */
(PID.TID 0000.0001)                 2.671753991965412E+05,      /* I =735 */
(PID.TID 0000.0001)                 2.653456356424517E+05,      /* I =736 */
(PID.TID 0000.0001)                 2.133486626971531E+05,      /* I =737 */
(PID.TID 0000.0001)                 2.154101527595057E+05,      /* I =738 */
(PID.TID 0000.0001)                 2.211519075665486E+05,      /* I =739 */
(PID.TID 0000.0001)                 2.292508886976699E+05,      /* I =740 */
(PID.TID 0000.0001)                 2.384665985420439E+05,      /* I =741 */
(PID.TID 0000.0001)                 2.479326143289449E+05,      /* I =742 */
(PID.TID 0000.0001)                 2.571317856571183E+05,      /* I =743 */
(PID.TID 0000.0001)                 2.657743747017959E+05,      /* I =744 */
(PID.TID 0000.0001)                 2.736990267615226E+05,      /* I =745 */
(PID.TID 0000.0001)                 2.808126658182779E+05,      /* I =746 */
(PID.TID 0000.0001)                 2.870578357484073E+05,      /* I =747 */
(PID.TID 0000.0001)                 2.923958928385492E+05,      /* I =748 */
(PID.TID 0000.0001)                 2.967987247986380E+05,      /* I =749 */
(PID.TID 0000.0001)                 3.002449168090383E+05,      /* I =750 */
(PID.TID 0000.0001)                 3.027181755059779E+05,      /* I =751 */
(PID.TID 0000.0001)                 3.042068401906188E+05,      /* I =752 */
(PID.TID 0000.0001)                 3.047039405458409E+05,      /* I =753 */
(PID.TID 0000.0001)                 3.042068401906188E+05,      /* I =754 */
(PID.TID 0000.0001)                 3.027181755059779E+05,      /* I =755 */
(PID.TID 0000.0001)                 3.002449168090383E+05,      /* I =756 */
(PID.TID 0000.0001)                 2.967987247986380E+05,      /* I =757 */
(PID.TID 0000.0001)                 2.923958928385492E+05,      /* I =758 */
(PID.TID 0000.0001)                 2.870578357484073E+05,      /* I =759 */
(PID.TID 0000.0001)                 2.808126658182779E+05,      /* I =760 */
(PID.TID 0000.0001)                 2.736990267615226E+05,      /* I =761 */
(PID.TID 0000.0001)                 2.657743747017959E+05,      /* I =762 */
(PID.TID 0000.0001)                 2.571317856571183E+05,      /* I =763 */
(PID.TID 0000.0001)                 2.479326143289449E+05,      /* I =764 */
(PID.TID 0000.0001)                 2.384665985420439E+05,      /* I =765 */
(PID.TID 0000.0001)                 2.292508886976699E+05,      /* I =766 */
(PID.TID 0000.0001)                 2.211519075665486E+05,      /* I =767 */
(PID.TID 0000.0001)                 2.154101527595057E+05,      /* I =768 */
(PID.TID 0000.0001)                 8.015229982413632E+04,      /* I =769 */
(PID.TID 0000.0001)                 1.333130744933864E+05,      /* I =770 */
(PID.TID 0000.0001)                 1.691744868129062E+05,      /* I =771 */
(PID.TID 0000.0001)                 1.937548202849060E+05,      /* I =772 */
(PID.TID 0000.0001)                 2.130490056267208E+05,      /* I =773 */
(PID.TID 0000.0001)                 2.290479919481738E+05,      /* I =774 */
(PID.TID 0000.0001)                 2.426774358027003E+05,      /* I =775 */
(PID.TID 0000.0001)                 2.544372984215561E+05,      /* I =776 */
(PID.TID 0000.0001)                 2.646201463834826E+05,      /* I =777 */
(PID.TID 0000.0001)                 2.734046499619031E+05,      /* I =778 */
(PID.TID 0000.0001)                 2.809019351693761E+05,      /* I =779 */
(PID.TID 0000.0001)                 2.871811105274442E+05,      /* I =780 */
(PID.TID 0000.0001)                 2.922844849381675E+05,      /* I =781 */
(PID.TID 0000.0001)                 2.962371870847826E+05,      /* I =782 */
(PID.TID 0000.0001)                 2.990534755671296E+05,      /* I =783 */
(PID.TID 0000.0001)                 3.007409169495504E+05,      /* I =784 */
(PID.TID 0000.0001)                 3.013031486919771E+05,      /* I =785 */
(PID.TID 0000.0001)                 3.007409169495504E+05,      /* I =786 */
(PID.TID 0000.0001)                 2.990534755671296E+05,      /* I =787 */
(PID.TID 0000.0001)                 2.962371870847826E+05,      /* I =788 */
(PID.TID 0000.0001)                 2.922844849381675E+05,      /* I =789 */
(PID.TID 0000.0001)                 2.871811105274442E+05,      /* I =790 */
(PID.TID 0000.0001)                 2.809019351693761E+05,      /* I =791 */
(PID.TID 0000.0001)                 2.734046499619031E+05,      /* I =792 */
(PID.TID 0000.0001)                 2.646201463834826E+05,      /* I =793 */
(PID.TID 0000.0001)                 2.544372984215561E+05,      /* I =794 */
(PID.TID 0000.0001)                 2.426774358027003E+05,      /* I =795 */
(PID.TID 0000.0001)                 2.290479919481738E+05,      /* I =796 */
(PID.TID 0000.0001)                 2.130490056267208E+05,      /* I =797 */
(PID.TID 0000.0001)                 1.937548202849060E+05,      /* I =798 */
(PID.TID 0000.0001)                 1.691744868129062E+05,      /* I =799 */
(PID.TID 0000.0001)                 1.333130744933864E+05,      /* I =800 */
(PID.TID 0000.0001)                 2.133486626971531E+05,      /* I =801 */
(PID.TID 0000.0001)                 2.154101527595057E+05,      /* I =802 */
(PID.TID 0000.0001)                 2.211519075665486E+05,      /* I =803 */
(PID.TID 0000.0001)                 2.292508886976699E+05,      /* I =804 */
(PID.TID 0000.0001)                 2.384665985420439E+05,      /* I =805 */
(PID.TID 0000.0001)                 2.479326143289449E+05,      /* I =806 */
(PID.TID 0000.0001)                 2.571317856571183E+05,      /* I =807 */
(PID.TID 0000.0001)                 2.657743747017959E+05,      /* I =808 */
(PID.TID 0000.0001)                 2.736990267615226E+05,      /* I =809 */
(PID.TID 0000.0001)                 2.808126658182779E+05,      /* I =810 */
(PID.TID 0000.0001)                 2.870578357484073E+05,      /* I =811 */
(PID.TID 0000.0001)                 2.923958928385492E+05,      /* I =812 */
(PID.TID 0000.0001)                 2.967987247986380E+05,      /* I =813 */
(PID.TID 0000.0001)                 3.002449168090383E+05,      /* I =814 */
(PID.TID 0000.0001)                 3.027181755059779E+05,      /* I =815 */
(PID.TID 0000.0001)                 3.042068401906188E+05,      /* I =816 */
(PID.TID 0000.0001)                 3.047039405458409E+05,      /* I =817 */
(PID.TID 0000.0001)                 3.042068401906188E+05,      /* I =818 */
(PID.TID 0000.0001)                 3.027181755059779E+05,      /* I =819 */
(PID.TID 0000.0001)                 3.002449168090383E+05,      /* I =820 */
(PID.TID 0000.0001)                 2.967987247986380E+05,      /* I =821 */
(PID.TID 0000.0001)                 2.923958928385492E+05,      /* I =822 */
(PID.TID 0000.0001)                 2.870578357484073E+05,      /* I =823 */
(PID.TID 0000.0001)                 2.808126658182779E+05,      /* I =824 */
(PID.TID 0000.0001)                 2.736990267615226E+05,      /* I =825 */
(PID.TID 0000.0001)                 2.657743747017959E+05,      /* I =826 */
(PID.TID 0000.0001)                 2.571317856571183E+05,      /* I =827 */
(PID.TID 0000.0001)                 2.479326143289449E+05,      /* I =828 */
(PID.TID 0000.0001)                 2.384665985420439E+05,      /* I =829 */
(PID.TID 0000.0001)                 2.292508886976699E+05,      /* I =830 */
(PID.TID 0000.0001)                 2.211519075665486E+05,      /* I =831 */
(PID.TID 0000.0001)                 2.154101527595057E+05,      /* I =832 */
(PID.TID 0000.0001)                 2.647274964828301E+05,      /* I =833 */
(PID.TID 0000.0001)                 2.653456356424517E+05,      /* I =834 */
(PID.TID 0000.0001)                 2.671753991965412E+05,      /* I =835 */
(PID.TID 0000.0001)                 2.700508040612306E+05,      /* I =836 */
(PID.TID 0000.0001)                 2.737508146608168E+05,      /* I =837 */
(PID.TID 0000.0001)                 2.780276168082243E+05,      /* I =838 */
(PID.TID 0000.0001)                 2.826379708415628E+05,      /* I =839 */
(PID.TID 0000.0001)                 2.873620334559252E+05,      /* I =840 */
(PID.TID 0000.0001)                 2.920110325953347E+05,      /* I =841 */
(PID.TID 0000.0001)                 2.964277678938787E+05,      /* I =842 */
(PID.TID 0000.0001)                 3.004836638020456E+05,      /* I =843 */
(PID.TID 0000.0001)                 3.040748366383395E+05,      /* I =844 */
(PID.TID 0000.0001)                 3.071184425324030E+05,      /* I =845 */
(PID.TID 0000.0001)                 3.095497845682837E+05,      /* I =846 */
(PID.TID 0000.0001)                 3.113202383405265E+05,      /* I =847 */
(PID.TID 0000.0001)                 3.123958777280941E+05,      /* I =848 */
(PID.TID 0000.0001)                 3.127567211383312E+05,      /* I =849 */
(PID.TID 0000.0001)                 3.123958777280941E+05,      /* I =850 */
(PID.TID 0000.0001)                 3.113202383405265E+05,      /* I =851 */
(PID.TID 0000.0001)                 3.095497845682837E+05,      /* I =852 */
(PID.TID 0000.0001)                 3.071184425324030E+05,      /* I =853 */
(PID.TID 0000.0001)                 3.040748366383395E+05,      /* I =854 */
(PID.TID 0000.0001)                 3.004836638020456E+05,      /* I =855 */
(PID.TID 0000.0001)                 2.964277678938787E+05,      /* I =856 */
(PID.TID 0000.0001)                 2.920110325953347E+05,      /* I =857 */
(PID.TID 0000.0001)                 2.873620334559252E+05,      /* I =858 */
(PID.TID 0000.0001)                 2.826379708415628E+05,      /* I =859 */
(PID.TID 0000.0001)                 2.780276168082243E+05,      /* I =860 */
(PID.TID 0000.0001)                 2.737508146608168E+05,      /* I =861 */
(PID.TID 0000.0001)                 2.700508040612306E+05,      /* I =862 */
(PID.TID 0000.0001)                 2.671753991965412E+05,      /* I =863 */
(PID.TID 0000.0001)                 2.653456356424517E+05,      /* I =864 */
(PID.TID 0000.0001)                 2.923567890694162E+05,      /* I =865 */
(PID.TID 0000.0001)                 2.926545230536374E+05,      /* I =866 */
(PID.TID 0000.0001)                 2.935386689892191E+05,      /* I =867 */
(PID.TID 0000.0001)                 2.949617148863616E+05,      /* I =868 */
(PID.TID 0000.0001)                 2.968528632519549E+05,      /* I =869 */
(PID.TID 0000.0001)                 2.991218910822632E+05,      /* I =870 */
(PID.TID 0000.0001)                 3.016659012529000E+05,      /* I =871 */
(PID.TID 0000.0001)                 3.043758085573489E+05,      /* I =872 */
(PID.TID 0000.0001)                 3.071419371354089E+05,      /* I =873 */
(PID.TID 0000.0001)                 3.098584812990768E+05,      /* I =874 */
(PID.TID 0000.0001)                 3.124268635934817E+05,      /* I =875 */
(PID.TID 0000.0001)                 3.147581742806108E+05,      /* I =876 */
(PID.TID 0000.0001)                 3.167749168862456E+05,      /* I =877 */
(PID.TID 0000.0001)                 3.184122585888001E+05,      /* I =878 */
(PID.TID 0000.0001)                 3.196189316921739E+05,      /* I =879 */
(PID.TID 0000.0001)                 3.203578790063228E+05,      /* I =880 */
(PID.TID 0000.0001)                 3.206067683235888E+05,      /* I =881 */
(PID.TID 0000.0001)                 3.203578790063228E+05,      /* I =882 */
(PID.TID 0000.0001)                 3.196189316921739E+05,      /* I =883 */
(PID.TID 0000.0001)                 3.184122585888001E+05,      /* I =884 */
(PID.TID 0000.0001)                 3.167749168862456E+05,      /* I =885 */
(PID.TID 0000.0001)                 3.147581742806108E+05,      /* I =886 */
(PID.TID 0000.0001)                 3.124268635934817E+05,      /* I =887 */
(PID.TID 0000.0001)                 3.098584812990768E+05,      /* I =888 */
(PID.TID 0000.0001)                 3.071419371354089E+05,      /* I =889 */
(PID.TID 0000.0001)                 3.043758085573489E+05,      /* I =890 */
(PID.TID 0000.0001)                 3.016659012529000E+05,      /* I =891 */
(PID.TID 0000.0001)                 2.991218910822632E+05,      /* I =892 */
(PID.TID 0000.0001)                 2.968528632519549E+05,      /* I =893 */
(PID.TID 0000.0001)                 2.949617148863616E+05,      /* I =894 */
(PID.TID 0000.0001)                 2.935386689892191E+05,      /* I =895 */
(PID.TID 0000.0001)                 2.926545230536374E+05,      /* I =896 */
(PID.TID 0000.0001)                 3.013686170436881E+05,      /* I =897 */
(PID.TID 0000.0001)                 3.015922136961168E+05,      /* I =898 */
(PID.TID 0000.0001)                 3.022533948177109E+05,      /* I =899 */
(PID.TID 0000.0001)                 3.033238888442880E+05,      /* I =900 */
(PID.TID 0000.0001)                 3.047583645125296E+05,      /* I =901 */
(PID.TID 0000.0001)                 3.064969104248934E+05,      /* I =902 */
(PID.TID 0000.0001)                 3.084681464323149E+05,      /* I =903 */
(PID.TID 0000.0001)                 3.105926959662063E+05,      /* I =904 */
(PID.TID 0000.0001)                 3.127867656729039E+05,      /* I =905 */
(PID.TID 0000.0001)                 3.149656255235069E+05,      /* I =906 */
(PID.TID 0000.0001)                 3.170468416979250E+05,      /* I =907 */
(PID.TID 0000.0001)                 3.189531711639232E+05,      /* I =908 */
(PID.TID 0000.0001)                 3.206150718566154E+05,      /* I =909 */
(PID.TID 0000.0001)                 3.219728125807783E+05,      /* I =910 */
(PID.TID 0000.0001)                 3.229781834933111E+05,      /* I =911 */
(PID.TID 0000.0001)                 3.235958148230841E+05,      /* I =912 */
(PID.TID 0000.0001)                 3.238041816275029E+05,      /* I =913 */
(PID.TID 0000.0001)                 3.235958148230841E+05,      /* I =914 */
(PID.TID 0000.0001)                 3.229781834933111E+05,      /* I =915 */
(PID.TID 0000.0001)                 3.219728125807783E+05,      /* I =916 */
(PID.TID 0000.0001)                 3.206150718566154E+05,      /* I =917 */
(PID.TID 0000.0001)                 3.189531711639232E+05,      /* I =918 */
(PID.TID 0000.0001)                 3.170468416979250E+05,      /* I =919 */
(PID.TID 0000.0001)                 3.149656255235069E+05,      /* I =920 */
(PID.TID 0000.0001)                 3.127867656729039E+05,      /* I =921 */
(PID.TID 0000.0001)                 3.105926959662063E+05,      /* I =922 */
(PID.TID 0000.0001)                 3.084681464323149E+05,      /* I =923 */
(PID.TID 0000.0001)                 3.064969104248934E+05,      /* I =924 */
(PID.TID 0000.0001)                 3.047583645125296E+05,      /* I =925 */
(PID.TID 0000.0001)                 3.033238888442880E+05,      /* I =926 */
(PID.TID 0000.0001)                 3.022533948177109E+05,      /* I =927 */
(PID.TID 0000.0001)                 3.015922136961168E+05,      /* I =928 */
(PID.TID 0000.0001)                 2.923567890694162E+05,      /* I =929 */
(PID.TID 0000.0001)                 2.926545230536374E+05,      /* I =930 */
(PID.TID 0000.0001)                 2.935386689892191E+05,      /* I =931 */
(PID.TID 0000.0001)                 2.949617148863616E+05,      /* I =932 */
(PID.TID 0000.0001)                 2.968528632519549E+05,      /* I =933 */
(PID.TID 0000.0001)                 2.991218910822632E+05,      /* I =934 */
(PID.TID 0000.0001)                 3.016659012529000E+05,      /* I =935 */
(PID.TID 0000.0001)                 3.043758085573489E+05,      /* I =936 */
(PID.TID 0000.0001)                 3.071419371354089E+05,      /* I =937 */
(PID.TID 0000.0001)                 3.098584812990768E+05,      /* I =938 */
(PID.TID 0000.0001)                 3.124268635934817E+05,      /* I =939 */
(PID.TID 0000.0001)                 3.147581742806108E+05,      /* I =940 */
(PID.TID 0000.0001)                 3.167749168862456E+05,      /* I =941 */
(PID.TID 0000.0001)                 3.184122585888001E+05,      /* I =942 */
(PID.TID 0000.0001)                 3.196189316921739E+05,      /* I =943 */
(PID.TID 0000.0001)                 3.203578790063228E+05,      /* I =944 */
(PID.TID 0000.0001)                 3.206067683235888E+05,      /* I =945 */
(PID.TID 0000.0001)                 3.203578790063228E+05,      /* I =946 */
(PID.TID 0000.0001)                 3.196189316921739E+05,      /* I =947 */
(PID.TID 0000.0001)                 3.184122585888001E+05,      /* I =948 */
(PID.TID 0000.0001)                 3.167749168862456E+05,      /* I =949 */
(PID.TID 0000.0001)                 3.147581742806108E+05,      /* I =950 */
(PID.TID 0000.0001)                 3.124268635934817E+05,      /* I =951 */
(PID.TID 0000.0001)                 3.098584812990768E+05,      /* I =952 */
(PID.TID 0000.0001)                 3.071419371354089E+05,      /* I =953 */
(PID.TID 0000.0001)                 3.043758085573489E+05,      /* I =954 */
(PID.TID 0000.0001)                 3.016659012529000E+05,      /* I =955 */
(PID.TID 0000.0001)                 2.991218910822632E+05,      /* I =956 */
(PID.TID 0000.0001)                 2.968528632519549E+05,      /* I =957 */
(PID.TID 0000.0001)                 2.949617148863616E+05,      /* I =958 */
(PID.TID 0000.0001)                 2.935386689892191E+05,      /* I =959 */
(PID.TID 0000.0001)                 2.926545230536374E+05,      /* I =960 */
(PID.TID 0000.0001)                 2.647274964828301E+05,      /* I =961 */
(PID.TID 0000.0001)                 2.653456356424517E+05,      /* I =962 */
(PID.TID 0000.0001)                 2.671753991965412E+05,      /* I =963 */
(PID.TID 0000.0001)                 2.700508040612306E+05,      /* I =964 */
(PID.TID 0000.0001)                 2.737508146608168E+05,      /* I =965 */
(PID.TID 0000.0001)                 2.780276168082243E+05,      /* I =966 */
(PID.TID 0000.0001)                 2.826379708415628E+05,      /* I =967 */
(PID.TID 0000.0001)                 2.873620334559252E+05,      /* I =968 */
(PID.TID 0000.0001)                 2.920110325953347E+05,      /* I =969 */
(PID.TID 0000.0001)                 2.964277678938787E+05,      /* I =970 */
(PID.TID 0000.0001)                 3.004836638020456E+05,      /* I =971 */
(PID.TID 0000.0001)                 3.040748366383395E+05,      /* I =972 */
(PID.TID 0000.0001)                 3.071184425324030E+05,      /* I =973 */
(PID.TID 0000.0001)                 3.095497845682837E+05,      /* I =974 */
(PID.TID 0000.0001)                 3.113202383405265E+05,      /* I =975 */
(PID.TID 0000.0001)                 3.123958777280941E+05,      /* I =976 */
(PID.TID 0000.0001)                 3.127567211383312E+05,      /* I =977 */
(PID.TID 0000.0001)                 3.123958777280941E+05,      /* I =978 */
(PID.TID 0000.0001)                 3.113202383405265E+05,      /* I =979 */
(PID.TID 0000.0001)                 3.095497845682837E+05,      /* I =980 */
(PID.TID 0000.0001)                 3.071184425324030E+05,      /* I =981 */
(PID.TID 0000.0001)                 3.040748366383395E+05,      /* I =982 */
(PID.TID 0000.0001)                 3.004836638020456E+05,      /* I =983 */
(PID.TID 0000.0001)                 2.964277678938787E+05,      /* I =984 */
(PID.TID 0000.0001)                 2.920110325953347E+05,      /* I =985 */
(PID.TID 0000.0001)                 2.873620334559252E+05,      /* I =986 */
(PID.TID 0000.0001)                 2.826379708415628E+05,      /* I =987 */
(PID.TID 0000.0001)                 2.780276168082243E+05,      /* I =988 */
(PID.TID 0000.0001)                 2.737508146608168E+05,      /* I =989 */
(PID.TID 0000.0001)                 2.700508040612306E+05,      /* I =990 */
(PID.TID 0000.0001)                 2.671753991965412E+05,      /* I =991 */
(PID.TID 0000.0001)                 2.653456356424517E+05,      /* I =992 */
(PID.TID 0000.0001)                 2.133486626971531E+05,      /* I =993 */
(PID.TID 0000.0001)                 2.154101527595057E+05,      /* I =994 */
(PID.TID 0000.0001)                 2.211519075665486E+05,      /* I =995 */
(PID.TID 0000.0001)                 2.292508886976699E+05,      /* I =996 */
(PID.TID 0000.0001)                 2.384665985420439E+05,      /* I =997 */
(PID.TID 0000.0001)                 2.479326143289449E+05,      /* I =998 */
(PID.TID 0000.0001)                 2.571317856571183E+05,      /* I =999 */
(PID.TID 0000.0001)                 2.657743747017959E+05,      /* I =*** */
(PID.TID 0000.0001)                 2.736990267615226E+05,      /* I =*** */
(PID.TID 0000.0001)                 2.808126658182779E+05,      /* I =*** */
(PID.TID 0000.0001)                 2.870578357484073E+05,      /* I =*** */
(PID.TID 0000.0001)                 2.923958928385492E+05,      /* I =*** */
(PID.TID 0000.0001)                 2.967987247986380E+05,      /* I =*** */
(PID.TID 0000.0001)                 3.002449168090383E+05,      /* I =*** */
(PID.TID 0000.0001)                 3.027181755059779E+05,      /* I =*** */
(PID.TID 0000.0001)                 3.042068401906188E+05,      /* I =*** */
(PID.TID 0000.0001)                 3.047039405458409E+05,      /* I =*** */
(PID.TID 0000.0001)                 3.042068401906188E+05,      /* I =*** */
(PID.TID 0000.0001)                 3.027181755059779E+05,      /* I =*** */
(PID.TID 0000.0001)                 3.002449168090383E+05,      /* I =*** */
(PID.TID 0000.0001)                 2.967987247986380E+05,      /* I =*** */
(PID.TID 0000.0001)                 2.923958928385492E+05,      /* I =*** */
(PID.TID 0000.0001)                 2.870578357484073E+05,      /* I =*** */
(PID.TID 0000.0001)                 2.808126658182779E+05,      /* I =*** */
(PID.TID 0000.0001)                 2.736990267615226E+05,      /* I =*** */
(PID.TID 0000.0001)                 2.657743747017959E+05,      /* I =*** */
(PID.TID 0000.0001)                 2.571317856571183E+05,      /* I =*** */
(PID.TID 0000.0001)                 2.479326143289449E+05,      /* I =*** */
(PID.TID 0000.0001)                 2.384665985420439E+05,      /* I =*** */
(PID.TID 0000.0001)                 2.292508886976699E+05,      /* I =*** */
(PID.TID 0000.0001)                 2.211519075665486E+05,      /* I =*** */
(PID.TID 0000.0001)                 2.154101527595057E+05,      /* I =*** */
(PID.TID 0000.0001)                 8.015229982413632E+04,      /* I =*** */
(PID.TID 0000.0001)                 1.333130744933864E+05,      /* I =*** */
(PID.TID 0000.0001)                 1.691744868129062E+05,      /* I =*** */
(PID.TID 0000.0001)                 1.937548202849060E+05,      /* I =*** */
(PID.TID 0000.0001)                 2.130490056267208E+05,      /* I =*** */
(PID.TID 0000.0001)                 2.290479919481738E+05,      /* I =*** */
(PID.TID 0000.0001)                 2.426774358027003E+05,      /* I =*** */
(PID.TID 0000.0001)                 2.544372984215561E+05,      /* I =*** */
(PID.TID 0000.0001)                 2.646201463834826E+05,      /* I =*** */
(PID.TID 0000.0001)                 2.734046499619031E+05,      /* I =*** */
(PID.TID 0000.0001)                 2.809019351693761E+05,      /* I =*** */
(PID.TID 0000.0001)                 2.871811105274442E+05,      /* I =*** */
(PID.TID 0000.0001)                 2.922844849381675E+05,      /* I =*** */
(PID.TID 0000.0001)                 2.962371870847826E+05,      /* I =*** */
(PID.TID 0000.0001)                 2.990534755671296E+05,      /* I =*** */
(PID.TID 0000.0001)                 3.007409169495504E+05,      /* I =*** */
(PID.TID 0000.0001)                 3.013031486919771E+05,      /* I =*** */
(PID.TID 0000.0001)                 3.007409169495504E+05,      /* I =*** */
(PID.TID 0000.0001)                 2.990534755671296E+05,      /* I =*** */
(PID.TID 0000.0001)                 2.962371870847826E+05,      /* I =*** */
(PID.TID 0000.0001)                 2.922844849381675E+05,      /* I =*** */
(PID.TID 0000.0001)                 2.871811105274442E+05,      /* I =*** */
(PID.TID 0000.0001)                 2.809019351693761E+05,      /* I =*** */
(PID.TID 0000.0001)                 2.734046499619031E+05,      /* I =*** */
(PID.TID 0000.0001)                 2.646201463834826E+05,      /* I =*** */
(PID.TID 0000.0001)                 2.544372984215561E+05,      /* I =*** */
(PID.TID 0000.0001)                 2.426774358027003E+05,      /* I =*** */
(PID.TID 0000.0001)                 2.290479919481738E+05,      /* I =*** */
(PID.TID 0000.0001)                 2.130490056267208E+05,      /* I =*** */
(PID.TID 0000.0001)                 1.937548202849060E+05,      /* I =*** */
(PID.TID 0000.0001)                 1.691744868129062E+05,      /* I =*** */
(PID.TID 0000.0001)                 1.333130744933864E+05,      /* I =*** */
(PID.TID 0000.0001)                 2.133486626971531E+05,      /* I =*** */
(PID.TID 0000.0001)                 2.154101527595057E+05,      /* I =*** */
(PID.TID 0000.0001)                 2.211519075665486E+05,      /* I =*** */
(PID.TID 0000.0001)                 2.292508886976699E+05,      /* I =*** */
(PID.TID 0000.0001)                 2.384665985420439E+05,      /* I =*** */
(PID.TID 0000.0001)                 2.479326143289449E+05,      /* I =*** */
(PID.TID 0000.0001)                 2.571317856571183E+05,      /* I =*** */
(PID.TID 0000.0001)                 2.657743747017959E+05,      /* I =*** */
(PID.TID 0000.0001)                 2.736990267615226E+05,      /* I =*** */
(PID.TID 0000.0001)                 2.808126658182779E+05,      /* I =*** */
(PID.TID 0000.0001)                 2.870578357484073E+05,      /* I =*** */
(PID.TID 0000.0001)                 2.923958928385492E+05,      /* I =*** */
(PID.TID 0000.0001)                 2.967987247986380E+05,      /* I =*** */
(PID.TID 0000.0001)                 3.002449168090383E+05,      /* I =*** */
(PID.TID 0000.0001)                 3.027181755059779E+05,      /* I =*** */
(PID.TID 0000.0001)                 3.042068401906188E+05,      /* I =*** */
(PID.TID 0000.0001)                 3.047039405458409E+05,      /* I =*** */
(PID.TID 0000.0001)                 3.042068401906188E+05,      /* I =*** */
(PID.TID 0000.0001)                 3.027181755059779E+05,      /* I =*** */
(PID.TID 0000.0001)                 3.002449168090383E+05,      /* I =*** */
(PID.TID 0000.0001)                 2.967987247986380E+05,      /* I =*** */
(PID.TID 0000.0001)                 2.923958928385492E+05,      /* I =*** */
(PID.TID 0000.0001)                 2.870578357484073E+05,      /* I =*** */
(PID.TID 0000.0001)                 2.808126658182779E+05,      /* I =*** */
(PID.TID 0000.0001)                 2.736990267615226E+05,      /* I =*** */
(PID.TID 0000.0001)                 2.657743747017959E+05,      /* I =*** */
(PID.TID 0000.0001)                 2.571317856571183E+05,      /* I =*** */
(PID.TID 0000.0001)                 2.479326143289449E+05,      /* I =*** */
(PID.TID 0000.0001)                 2.384665985420439E+05,      /* I =*** */
(PID.TID 0000.0001)                 2.292508886976699E+05,      /* I =*** */
(PID.TID 0000.0001)                 2.211519075665486E+05,      /* I =*** */
(PID.TID 0000.0001)                 2.154101527595057E+05,      /* I =*** */
(PID.TID 0000.0001)                 2.647274964828301E+05,      /* I =*** */
(PID.TID 0000.0001)                 2.653456356424517E+05,      /* I =*** */
(PID.TID 0000.0001)                 2.671753991965412E+05,      /* I =*** */
(PID.TID 0000.0001)                 2.700508040612306E+05,      /* I =*** */
(PID.TID 0000.0001)                 2.737508146608168E+05,      /* I =*** */
(PID.TID 0000.0001)                 2.780276168082243E+05,      /* I =*** */
(PID.TID 0000.0001)                 2.826379708415628E+05,      /* I =*** */
(PID.TID 0000.0001)                 2.873620334559252E+05,      /* I =*** */
(PID.TID 0000.0001)                 2.920110325953347E+05,      /* I =*** */
(PID.TID 0000.0001)                 2.964277678938787E+05,      /* I =*** */
(PID.TID 0000.0001)                 3.004836638020456E+05,      /* I =*** */
(PID.TID 0000.0001)                 3.040748366383395E+05,      /* I =*** */
(PID.TID 0000.0001)                 3.071184425324030E+05,      /* I =*** */
(PID.TID 0000.0001)                 3.095497845682837E+05,      /* I =*** */
(PID.TID 0000.0001)                 3.113202383405265E+05,      /* I =*** */
(PID.TID 0000.0001)                 3.123958777280941E+05,      /* I =*** */
(PID.TID 0000.0001)                 3.127567211383312E+05,      /* I =*** */
(PID.TID 0000.0001)                 3.123958777280941E+05,      /* I =*** */
(PID.TID 0000.0001)                 3.113202383405265E+05,      /* I =*** */
(PID.TID 0000.0001)                 3.095497845682837E+05,      /* I =*** */
(PID.TID 0000.0001)                 3.071184425324030E+05,      /* I =*** */
(PID.TID 0000.0001)                 3.040748366383395E+05,      /* I =*** */
(PID.TID 0000.0001)                 3.004836638020456E+05,      /* I =*** */
(PID.TID 0000.0001)                 2.964277678938787E+05,      /* I =*** */
(PID.TID 0000.0001)                 2.920110325953347E+05,      /* I =*** */
(PID.TID 0000.0001)                 2.873620334559252E+05,      /* I =*** */
(PID.TID 0000.0001)                 2.826379708415628E+05,      /* I =*** */
(PID.TID 0000.0001)                 2.780276168082243E+05,      /* I =*** */
(PID.TID 0000.0001)                 2.737508146608168E+05,      /* I =*** */
(PID.TID 0000.0001)                 2.700508040612306E+05,      /* I =*** */
(PID.TID 0000.0001)                 2.671753991965412E+05,      /* I =*** */
(PID.TID 0000.0001)                 2.653456356424517E+05,      /* I =*** */
(PID.TID 0000.0001)                 2.923567890694162E+05,      /* I =*** */
(PID.TID 0000.0001)                 2.926545230536374E+05,      /* I =*** */
(PID.TID 0000.0001)                 2.935386689892191E+05,      /* I =*** */
(PID.TID 0000.0001)                 2.949617148863616E+05,      /* I =*** */
(PID.TID 0000.0001)                 2.968528632519549E+05,      /* I =*** */
(PID.TID 0000.0001)                 2.991218910822632E+05,      /* I =*** */
(PID.TID 0000.0001)                 3.016659012529000E+05,      /* I =*** */
(PID.TID 0000.0001)                 3.043758085573489E+05,      /* I =*** */
(PID.TID 0000.0001)                 3.071419371354089E+05,      /* I =*** */
(PID.TID 0000.0001)                 3.098584812990768E+05,      /* I =*** */
(PID.TID 0000.0001)                 3.124268635934817E+05,      /* I =*** */
(PID.TID 0000.0001)                 3.147581742806108E+05,      /* I =*** */
(PID.TID 0000.0001)                 3.167749168862456E+05,      /* I =*** */
(PID.TID 0000.0001)                 3.184122585888001E+05,      /* I =*** */
(PID.TID 0000.0001)                 3.196189316921739E+05,      /* I =*** */
(PID.TID 0000.0001)                 3.203578790063228E+05,      /* I =*** */
(PID.TID 0000.0001)                 3.206067683235888E+05,      /* I =*** */
(PID.TID 0000.0001)                 3.203578790063228E+05,      /* I =*** */
(PID.TID 0000.0001)                 3.196189316921739E+05,      /* I =*** */
(PID.TID 0000.0001)                 3.184122585888001E+05,      /* I =*** */
(PID.TID 0000.0001)                 3.167749168862456E+05,      /* I =*** */
(PID.TID 0000.0001)                 3.147581742806108E+05,      /* I =*** */
(PID.TID 0000.0001)                 3.124268635934817E+05,      /* I =*** */
(PID.TID 0000.0001)                 3.098584812990768E+05,      /* I =*** */
(PID.TID 0000.0001)                 3.071419371354089E+05,      /* I =*** */
(PID.TID 0000.0001)                 3.043758085573489E+05,      /* I =*** */
(PID.TID 0000.0001)                 3.016659012529000E+05,      /* I =*** */
(PID.TID 0000.0001)                 2.991218910822632E+05,      /* I =*** */
(PID.TID 0000.0001)                 2.968528632519549E+05,      /* I =*** */
(PID.TID 0000.0001)                 2.949617148863616E+05,      /* I =*** */
(PID.TID 0000.0001)                 2.935386689892191E+05,      /* I =*** */
(PID.TID 0000.0001)                 2.926545230536374E+05,      /* I =*** */
(PID.TID 0000.0001)                 3.013686170436881E+05,      /* I =*** */
(PID.TID 0000.0001)                 3.015922136961168E+05,      /* I =*** */
(PID.TID 0000.0001)                 3.022533948177109E+05,      /* I =*** */
(PID.TID 0000.0001)                 3.033238888442880E+05,      /* I =*** */
(PID.TID 0000.0001)                 3.047583645125296E+05,      /* I =*** */
(PID.TID 0000.0001)                 3.064969104248934E+05,      /* I =*** */
(PID.TID 0000.0001)                 3.084681464323149E+05,      /* I =*** */
(PID.TID 0000.0001)                 3.105926959662063E+05,      /* I =*** */
(PID.TID 0000.0001)                 3.127867656729039E+05,      /* I =*** */
(PID.TID 0000.0001)                 3.149656255235069E+05,      /* I =*** */
(PID.TID 0000.0001)                 3.170468416979250E+05,      /* I =*** */
(PID.TID 0000.0001)                 3.189531711639232E+05,      /* I =*** */
(PID.TID 0000.0001)                 3.206150718566154E+05,      /* I =*** */
(PID.TID 0000.0001)                 3.219728125807783E+05,      /* I =*** */
(PID.TID 0000.0001)                 3.229781834933111E+05,      /* I =*** */
(PID.TID 0000.0001)                 3.235958148230841E+05,      /* I =*** */
(PID.TID 0000.0001)                 3.238041816275029E+05,      /* I =*** */
(PID.TID 0000.0001)                 3.235958148230841E+05,      /* I =*** */
(PID.TID 0000.0001)                 3.229781834933111E+05,      /* I =*** */
(PID.TID 0000.0001)                 3.219728125807783E+05,      /* I =*** */
(PID.TID 0000.0001)                 3.206150718566154E+05,      /* I =*** */
(PID.TID 0000.0001)                 3.189531711639232E+05,      /* I =*** */
(PID.TID 0000.0001)                 3.170468416979250E+05,      /* I =*** */
(PID.TID 0000.0001)                 3.149656255235069E+05,      /* I =*** */
(PID.TID 0000.0001)                 3.127867656729039E+05,      /* I =*** */
(PID.TID 0000.0001)                 3.105926959662063E+05,      /* I =*** */
(PID.TID 0000.0001)                 3.084681464323149E+05,      /* I =*** */
(PID.TID 0000.0001)                 3.064969104248934E+05,      /* I =*** */
(PID.TID 0000.0001)                 3.047583645125296E+05,      /* I =*** */
(PID.TID 0000.0001)                 3.033238888442880E+05,      /* I =*** */
(PID.TID 0000.0001)                 3.022533948177109E+05,      /* I =*** */
(PID.TID 0000.0001)                 3.015922136961168E+05,      /* I =*** */
(PID.TID 0000.0001)                 2.923567890694162E+05,      /* I =*** */
(PID.TID 0000.0001)                 2.926545230536374E+05,      /* I =*** */
(PID.TID 0000.0001)                 2.935386689892191E+05,      /* I =*** */
(PID.TID 0000.0001)                 2.949617148863616E+05,      /* I =*** */
(PID.TID 0000.0001)                 2.968528632519549E+05,      /* I =*** */
(PID.TID 0000.0001)                 2.991218910822632E+05,      /* I =*** */
(PID.TID 0000.0001)                 3.016659012529000E+05,      /* I =*** */
(PID.TID 0000.0001)                 3.043758085573489E+05,      /* I =*** */
(PID.TID 0000.0001)                 3.071419371354089E+05,      /* I =*** */
(PID.TID 0000.0001)                 3.098584812990768E+05,      /* I =*** */
(PID.TID 0000.0001)                 3.124268635934817E+05,      /* I =*** */
(PID.TID 0000.0001)                 3.147581742806108E+05,      /* I =*** */
(PID.TID 0000.0001)                 3.167749168862456E+05,      /* I =*** */
(PID.TID 0000.0001)                 3.184122585888001E+05,      /* I =*** */
(PID.TID 0000.0001)                 3.196189316921739E+05,      /* I =*** */
(PID.TID 0000.0001)                 3.203578790063228E+05,      /* I =*** */
(PID.TID 0000.0001)                 3.206067683235888E+05,      /* I =*** */
(PID.TID 0000.0001)                 3.203578790063228E+05,      /* I =*** */
(PID.TID 0000.0001)                 3.196189316921739E+05,      /* I =*** */
(PID.TID 0000.0001)                 3.184122585888001E+05,      /* I =*** */
(PID.TID 0000.0001)                 3.167749168862456E+05,      /* I =*** */
(PID.TID 0000.0001)                 3.147581742806108E+05,      /* I =*** */
(PID.TID 0000.0001)                 3.124268635934817E+05,      /* I =*** */
(PID.TID 0000.0001)                 3.098584812990768E+05,      /* I =*** */
(PID.TID 0000.0001)                 3.071419371354089E+05,      /* I =*** */
(PID.TID 0000.0001)                 3.043758085573489E+05,      /* I =*** */
(PID.TID 0000.0001)                 3.016659012529000E+05,      /* I =*** */
(PID.TID 0000.0001)                 2.991218910822632E+05,      /* I =*** */
(PID.TID 0000.0001)                 2.968528632519549E+05,      /* I =*** */
(PID.TID 0000.0001)                 2.949617148863616E+05,      /* I =*** */
(PID.TID 0000.0001)                 2.935386689892191E+05,      /* I =*** */
(PID.TID 0000.0001)                 2.926545230536374E+05,      /* I =*** */
(PID.TID 0000.0001)                 2.647274964828301E+05,      /* I =*** */
(PID.TID 0000.0001)                 2.653456356424517E+05,      /* I =*** */
(PID.TID 0000.0001)                 2.671753991965412E+05,      /* I =*** */
(PID.TID 0000.0001)                 2.700508040612306E+05,      /* I =*** */
(PID.TID 0000.0001)                 2.737508146608168E+05,      /* I =*** */
(PID.TID 0000.0001)                 2.780276168082243E+05,      /* I =*** */
(PID.TID 0000.0001)                 2.826379708415628E+05,      /* I =*** */
(PID.TID 0000.0001)                 2.873620334559252E+05,      /* I =*** */
(PID.TID 0000.0001)                 2.920110325953347E+05,      /* I =*** */
(PID.TID 0000.0001)                 2.964277678938787E+05,      /* I =*** */
(PID.TID 0000.0001)                 3.004836638020456E+05,      /* I =*** */
(PID.TID 0000.0001)                 3.040748366383395E+05,      /* I =*** */
(PID.TID 0000.0001)                 3.071184425324030E+05,      /* I =*** */
(PID.TID 0000.0001)                 3.095497845682837E+05,      /* I =*** */
(PID.TID 0000.0001)                 3.113202383405265E+05,      /* I =*** */
(PID.TID 0000.0001)                 3.123958777280941E+05,      /* I =*** */
(PID.TID 0000.0001)                 3.127567211383312E+05,      /* I =*** */
(PID.TID 0000.0001)                 3.123958777280941E+05,      /* I =*** */
(PID.TID 0000.0001)                 3.113202383405265E+05,      /* I =*** */
(PID.TID 0000.0001)                 3.095497845682837E+05,      /* I =*** */
(PID.TID 0000.0001)                 3.071184425324030E+05,      /* I =*** */
(PID.TID 0000.0001)                 3.040748366383395E+05,      /* I =*** */
(PID.TID 0000.0001)                 3.004836638020456E+05,      /* I =*** */
(PID.TID 0000.0001)                 2.964277678938787E+05,      /* I =*** */
(PID.TID 0000.0001)                 2.920110325953347E+05,      /* I =*** */
(PID.TID 0000.0001)                 2.873620334559252E+05,      /* I =*** */
(PID.TID 0000.0001)                 2.826379708415628E+05,      /* I =*** */
(PID.TID 0000.0001)                 2.780276168082243E+05,      /* I =*** */
(PID.TID 0000.0001)                 2.737508146608168E+05,      /* I =*** */
(PID.TID 0000.0001)                 2.700508040612306E+05,      /* I =*** */
(PID.TID 0000.0001)                 2.671753991965412E+05,      /* I =*** */
(PID.TID 0000.0001)                 2.653456356424517E+05,      /* I =*** */
(PID.TID 0000.0001)                 2.133486626971531E+05,      /* I =*** */
(PID.TID 0000.0001)                 2.154101527595057E+05,      /* I =*** */
(PID.TID 0000.0001)                 2.211519075665486E+05,      /* I =*** */
(PID.TID 0000.0001)                 2.292508886976699E+05,      /* I =*** */
(PID.TID 0000.0001)                 2.384665985420439E+05,      /* I =*** */
(PID.TID 0000.0001)                 2.479326143289449E+05,      /* I =*** */
(PID.TID 0000.0001)                 2.571317856571183E+05,      /* I =*** */
(PID.TID 0000.0001)                 2.657743747017959E+05,      /* I =*** */
(PID.TID 0000.0001)                 2.736990267615226E+05,      /* I =*** */
(PID.TID 0000.0001)                 2.808126658182779E+05,      /* I =*** */
(PID.TID 0000.0001)                 2.870578357484073E+05,      /* I =*** */
(PID.TID 0000.0001)                 2.923958928385492E+05,      /* I =*** */
(PID.TID 0000.0001)                 2.967987247986380E+05,      /* I =*** */
(PID.TID 0000.0001)                 3.002449168090383E+05,      /* I =*** */
(PID.TID 0000.0001)                 3.027181755059779E+05,      /* I =*** */
(PID.TID 0000.0001)                 3.042068401906188E+05,      /* I =*** */
(PID.TID 0000.0001)                 3.047039405458409E+05,      /* I =*** */
(PID.TID 0000.0001)                 3.042068401906188E+05,      /* I =*** */
(PID.TID 0000.0001)                 3.027181755059779E+05,      /* I =*** */
(PID.TID 0000.0001)                 3.002449168090383E+05,      /* I =*** */
(PID.TID 0000.0001)                 2.967987247986380E+05,      /* I =*** */
(PID.TID 0000.0001)                 2.923958928385492E+05,      /* I =*** */
(PID.TID 0000.0001)                 2.870578357484073E+05,      /* I =*** */
(PID.TID 0000.0001)                 2.808126658182779E+05,      /* I =*** */
(PID.TID 0000.0001)                 2.736990267615226E+05,      /* I =*** */
(PID.TID 0000.0001)                 2.657743747017959E+05,      /* I =*** */
(PID.TID 0000.0001)                 2.571317856571183E+05,      /* I =*** */
(PID.TID 0000.0001)                 2.479326143289449E+05,      /* I =*** */
(PID.TID 0000.0001)                 2.384665985420439E+05,      /* I =*** */
(PID.TID 0000.0001)                 2.292508886976699E+05,      /* I =*** */
(PID.TID 0000.0001)                 2.211519075665486E+05,      /* I =*** */
(PID.TID 0000.0001)                 2.154101527595057E+05,      /* I =*** */
(PID.TID 0000.0001)                 8.015229982413632E+04,      /* I =*** */
(PID.TID 0000.0001)                 1.333130744933864E+05,      /* I =*** */
(PID.TID 0000.0001)                 1.691744868129062E+05,      /* I =*** */
(PID.TID 0000.0001)                 1.937548202849060E+05,      /* I =*** */
(PID.TID 0000.0001)                 2.130490056267208E+05,      /* I =*** */
(PID.TID 0000.0001)                 2.290479919481738E+05,      /* I =*** */
(PID.TID 0000.0001)                 2.426774358027003E+05,      /* I =*** */
(PID.TID 0000.0001)                 2.544372984215561E+05,      /* I =*** */
(PID.TID 0000.0001)                 2.646201463834826E+05,      /* I =*** */
(PID.TID 0000.0001)                 2.734046499619031E+05,      /* I =*** */
(PID.TID 0000.0001)                 2.809019351693761E+05,      /* I =*** */
(PID.TID 0000.0001)                 2.871811105274442E+05,      /* I =*** */
(PID.TID 0000.0001)                 2.922844849381675E+05,      /* I =*** */
(PID.TID 0000.0001)                 2.962371870847826E+05,      /* I =*** */
(PID.TID 0000.0001)                 2.990534755671296E+05,      /* I =*** */
(PID.TID 0000.0001)                 3.007409169495504E+05,      /* I =*** */
(PID.TID 0000.0001)                 3.013031486919771E+05,      /* I =*** */
(PID.TID 0000.0001)                 3.007409169495504E+05,      /* I =*** */
(PID.TID 0000.0001)                 2.990534755671296E+05,      /* I =*** */
(PID.TID 0000.0001)                 2.962371870847826E+05,      /* I =*** */
(PID.TID 0000.0001)                 2.922844849381675E+05,      /* I =*** */
(PID.TID 0000.0001)                 2.871811105274442E+05,      /* I =*** */
(PID.TID 0000.0001)                 2.809019351693761E+05,      /* I =*** */
(PID.TID 0000.0001)                 2.734046499619031E+05,      /* I =*** */
(PID.TID 0000.0001)                 2.646201463834826E+05,      /* I =*** */
(PID.TID 0000.0001)                 2.544372984215561E+05,      /* I =*** */
(PID.TID 0000.0001)                 2.426774358027003E+05,      /* I =*** */
(PID.TID 0000.0001)                 2.290479919481738E+05,      /* I =*** */
(PID.TID 0000.0001)                 2.130490056267208E+05,      /* I =*** */
(PID.TID 0000.0001)                 1.937548202849060E+05,      /* I =*** */
(PID.TID 0000.0001)                 1.691744868129062E+05,      /* I =*** */
(PID.TID 0000.0001)                 1.333130744933864E+05,      /* I =*** */
(PID.TID 0000.0001)                 2.133486626971531E+05,      /* I =*** */
(PID.TID 0000.0001)                 2.154101527595057E+05,      /* I =*** */
(PID.TID 0000.0001)                 2.211519075665486E+05,      /* I =*** */
(PID.TID 0000.0001)                 2.292508886976699E+05,      /* I =*** */
(PID.TID 0000.0001)                 2.384665985420439E+05,      /* I =*** */
(PID.TID 0000.0001)                 2.479326143289449E+05,      /* I =*** */
(PID.TID 0000.0001)                 2.571317856571183E+05,      /* I =*** */
(PID.TID 0000.0001)                 2.657743747017959E+05,      /* I =*** */
(PID.TID 0000.0001)                 2.736990267615226E+05,      /* I =*** */
(PID.TID 0000.0001)                 2.808126658182779E+05,      /* I =*** */
(PID.TID 0000.0001)                 2.870578357484073E+05,      /* I =*** */
(PID.TID 0000.0001)                 2.923958928385492E+05,      /* I =*** */
(PID.TID 0000.0001)                 2.967987247986380E+05,      /* I =*** */
(PID.TID 0000.0001)                 3.002449168090383E+05,      /* I =*** */
(PID.TID 0000.0001)                 3.027181755059779E+05,      /* I =*** */
(PID.TID 0000.0001)                 3.042068401906188E+05,      /* I =*** */
(PID.TID 0000.0001)                 3.047039405458409E+05,      /* I =*** */
(PID.TID 0000.0001)                 3.042068401906188E+05,      /* I =*** */
(PID.TID 0000.0001)                 3.027181755059779E+05,      /* I =*** */
(PID.TID 0000.0001)                 3.002449168090383E+05,      /* I =*** */
(PID.TID 0000.0001)                 2.967987247986380E+05,      /* I =*** */
(PID.TID 0000.0001)                 2.923958928385492E+05,      /* I =*** */
(PID.TID 0000.0001)                 2.870578357484073E+05,      /* I =*** */
(PID.TID 0000.0001)                 2.808126658182779E+05,      /* I =*** */
(PID.TID 0000.0001)                 2.736990267615226E+05,      /* I =*** */
(PID.TID 0000.0001)                 2.657743747017959E+05,      /* I =*** */
(PID.TID 0000.0001)                 2.571317856571183E+05,      /* I =*** */
(PID.TID 0000.0001)                 2.479326143289449E+05,      /* I =*** */
(PID.TID 0000.0001)                 2.384665985420439E+05,      /* I =*** */
(PID.TID 0000.0001)                 2.292508886976699E+05,      /* I =*** */
(PID.TID 0000.0001)                 2.211519075665486E+05,      /* I =*** */
(PID.TID 0000.0001)                 2.154101527595057E+05,      /* I =*** */
(PID.TID 0000.0001)                 2.647274964828301E+05,      /* I =*** */
(PID.TID 0000.0001)                 2.653456356424517E+05,      /* I =*** */
(PID.TID 0000.0001)                 2.671753991965412E+05,      /* I =*** */
(PID.TID 0000.0001)                 2.700508040612306E+05,      /* I =*** */
(PID.TID 0000.0001)                 2.737508146608168E+05,      /* I =*** */
(PID.TID 0000.0001)                 2.780276168082243E+05,      /* I =*** */
(PID.TID 0000.0001)                 2.826379708415628E+05,      /* I =*** */
(PID.TID 0000.0001)                 2.873620334559252E+05,      /* I =*** */
(PID.TID 0000.0001)                 2.920110325953347E+05,      /* I =*** */
(PID.TID 0000.0001)                 2.964277678938787E+05,      /* I =*** */
(PID.TID 0000.0001)                 3.004836638020456E+05,      /* I =*** */
(PID.TID 0000.0001)                 3.040748366383395E+05,      /* I =*** */
(PID.TID 0000.0001)                 3.071184425324030E+05,      /* I =*** */
(PID.TID 0000.0001)                 3.095497845682837E+05,      /* I =*** */
(PID.TID 0000.0001)                 3.113202383405265E+05,      /* I =*** */
(PID.TID 0000.0001)                 3.123958777280941E+05,      /* I =*** */
(PID.TID 0000.0001)                 3.127567211383312E+05,      /* I =*** */
(PID.TID 0000.0001)                 3.123958777280941E+05,      /* I =*** */
(PID.TID 0000.0001)                 3.113202383405265E+05,      /* I =*** */
(PID.TID 0000.0001)                 3.095497845682837E+05,      /* I =*** */
(PID.TID 0000.0001)                 3.071184425324030E+05,      /* I =*** */
(PID.TID 0000.0001)                 3.040748366383395E+05,      /* I =*** */
(PID.TID 0000.0001)                 3.004836638020456E+05,      /* I =*** */
(PID.TID 0000.0001)                 2.964277678938787E+05,      /* I =*** */
(PID.TID 0000.0001)                 2.920110325953347E+05,      /* I =*** */
(PID.TID 0000.0001)                 2.873620334559252E+05,      /* I =*** */
(PID.TID 0000.0001)                 2.826379708415628E+05,      /* I =*** */
(PID.TID 0000.0001)                 2.780276168082243E+05,      /* I =*** */
(PID.TID 0000.0001)                 2.737508146608168E+05,      /* I =*** */
(PID.TID 0000.0001)                 2.700508040612306E+05,      /* I =*** */
(PID.TID 0000.0001)                 2.671753991965412E+05,      /* I =*** */
(PID.TID 0000.0001)                 2.653456356424517E+05,      /* I =*** */
(PID.TID 0000.0001)                 2.923567890694162E+05,      /* I =*** */
(PID.TID 0000.0001)                 2.926545230536374E+05,      /* I =*** */
(PID.TID 0000.0001)                 2.935386689892191E+05,      /* I =*** */
(PID.TID 0000.0001)                 2.949617148863616E+05,      /* I =*** */
(PID.TID 0000.0001)                 2.968528632519549E+05,      /* I =*** */
(PID.TID 0000.0001)                 2.991218910822632E+05,      /* I =*** */
(PID.TID 0000.0001)                 3.016659012529000E+05,      /* I =*** */
(PID.TID 0000.0001)                 3.043758085573489E+05,      /* I =*** */
(PID.TID 0000.0001)                 3.071419371354089E+05,      /* I =*** */
(PID.TID 0000.0001)                 3.098584812990768E+05,      /* I =*** */
(PID.TID 0000.0001)                 3.124268635934817E+05,      /* I =*** */
(PID.TID 0000.0001)                 3.147581742806108E+05,      /* I =*** */
(PID.TID 0000.0001)                 3.167749168862456E+05,      /* I =*** */
(PID.TID 0000.0001)                 3.184122585888001E+05,      /* I =*** */
(PID.TID 0000.0001)                 3.196189316921739E+05,      /* I =*** */
(PID.TID 0000.0001)                 3.203578790063228E+05,      /* I =*** */
(PID.TID 0000.0001)                 3.206067683235888E+05,      /* I =*** */
(PID.TID 0000.0001)                 3.203578790063228E+05,      /* I =*** */
(PID.TID 0000.0001)                 3.196189316921739E+05,      /* I =*** */
(PID.TID 0000.0001)                 3.184122585888001E+05,      /* I =*** */
(PID.TID 0000.0001)                 3.167749168862456E+05,      /* I =*** */
(PID.TID 0000.0001)                 3.147581742806108E+05,      /* I =*** */
(PID.TID 0000.0001)                 3.124268635934817E+05,      /* I =*** */
(PID.TID 0000.0001)                 3.098584812990768E+05,      /* I =*** */
(PID.TID 0000.0001)                 3.071419371354089E+05,      /* I =*** */
(PID.TID 0000.0001)                 3.043758085573489E+05,      /* I =*** */
(PID.TID 0000.0001)                 3.016659012529000E+05,      /* I =*** */
(PID.TID 0000.0001)                 2.991218910822632E+05,      /* I =*** */
(PID.TID 0000.0001)                 2.968528632519549E+05,      /* I =*** */
(PID.TID 0000.0001)                 2.949617148863616E+05,      /* I =*** */
(PID.TID 0000.0001)                 2.935386689892191E+05,      /* I =*** */
(PID.TID 0000.0001)                 2.926545230536374E+05,      /* I =*** */
(PID.TID 0000.0001)                 3.013686170436881E+05,      /* I =*** */
(PID.TID 0000.0001)                 3.015922136961168E+05,      /* I =*** */
(PID.TID 0000.0001)                 3.022533948177109E+05,      /* I =*** */
(PID.TID 0000.0001)                 3.033238888442880E+05,      /* I =*** */
(PID.TID 0000.0001)                 3.047583645125296E+05,      /* I =*** */
(PID.TID 0000.0001)                 3.064969104248934E+05,      /* I =*** */
(PID.TID 0000.0001)                 3.084681464323149E+05,      /* I =*** */
(PID.TID 0000.0001)                 3.105926959662063E+05,      /* I =*** */
(PID.TID 0000.0001)                 3.127867656729039E+05,      /* I =*** */
(PID.TID 0000.0001)                 3.149656255235069E+05,      /* I =*** */
(PID.TID 0000.0001)                 3.170468416979250E+05,      /* I =*** */
(PID.TID 0000.0001)                 3.189531711639232E+05,      /* I =*** */
(PID.TID 0000.0001)                 3.206150718566154E+05,      /* I =*** */
(PID.TID 0000.0001)                 3.219728125807783E+05,      /* I =*** */
(PID.TID 0000.0001)                 3.229781834933111E+05,      /* I =*** */
(PID.TID 0000.0001)                 3.235958148230841E+05,      /* I =*** */
(PID.TID 0000.0001)                 3.238041816275029E+05,      /* I =*** */
(PID.TID 0000.0001)                 3.235958148230841E+05,      /* I =*** */
(PID.TID 0000.0001)                 3.229781834933111E+05,      /* I =*** */
(PID.TID 0000.0001)                 3.219728125807783E+05,      /* I =*** */
(PID.TID 0000.0001)                 3.206150718566154E+05,      /* I =*** */
(PID.TID 0000.0001)                 3.189531711639232E+05,      /* I =*** */
(PID.TID 0000.0001)                 3.170468416979250E+05,      /* I =*** */
(PID.TID 0000.0001)                 3.149656255235069E+05,      /* I =*** */
(PID.TID 0000.0001)                 3.127867656729039E+05,      /* I =*** */
(PID.TID 0000.0001)                 3.105926959662063E+05,      /* I =*** */
(PID.TID 0000.0001)                 3.084681464323149E+05,      /* I =*** */
(PID.TID 0000.0001)                 3.064969104248934E+05,      /* I =*** */
(PID.TID 0000.0001)                 3.047583645125296E+05,      /* I =*** */
(PID.TID 0000.0001)                 3.033238888442880E+05,      /* I =*** */
(PID.TID 0000.0001)                 3.022533948177109E+05,      /* I =*** */
(PID.TID 0000.0001)                 3.015922136961168E+05,      /* I =*** */
(PID.TID 0000.0001)                 2.923567890694162E+05,      /* I =*** */
(PID.TID 0000.0001)                 2.926545230536374E+05,      /* I =*** */
(PID.TID 0000.0001)                 2.935386689892191E+05,      /* I =*** */
(PID.TID 0000.0001)                 2.949617148863616E+05,      /* I =*** */
(PID.TID 0000.0001)                 2.968528632519549E+05,      /* I =*** */
(PID.TID 0000.0001)                 2.991218910822632E+05,      /* I =*** */
(PID.TID 0000.0001)                 3.016659012529000E+05,      /* I =*** */
(PID.TID 0000.0001)                 3.043758085573489E+05,      /* I =*** */
(PID.TID 0000.0001)                 3.071419371354089E+05,      /* I =*** */
(PID.TID 0000.0001)                 3.098584812990768E+05,      /* I =*** */
(PID.TID 0000.0001)                 3.124268635934817E+05,      /* I =*** */
(PID.TID 0000.0001)                 3.147581742806108E+05,      /* I =*** */
(PID.TID 0000.0001)                 3.167749168862456E+05,      /* I =*** */
(PID.TID 0000.0001)                 3.184122585888001E+05,      /* I =*** */
(PID.TID 0000.0001)                 3.196189316921739E+05,      /* I =*** */
(PID.TID 0000.0001)                 3.203578790063228E+05,      /* I =*** */
(PID.TID 0000.0001)                 3.206067683235888E+05,      /* I =*** */
(PID.TID 0000.0001)                 3.203578790063228E+05,      /* I =*** */
(PID.TID 0000.0001)                 3.196189316921739E+05,      /* I =*** */
(PID.TID 0000.0001)                 3.184122585888001E+05,      /* I =*** */
(PID.TID 0000.0001)                 3.167749168862456E+05,      /* I =*** */
(PID.TID 0000.0001)                 3.147581742806108E+05,      /* I =*** */
(PID.TID 0000.0001)                 3.124268635934817E+05,      /* I =*** */
(PID.TID 0000.0001)                 3.098584812990768E+05,      /* I =*** */
(PID.TID 0000.0001)                 3.071419371354089E+05,      /* I =*** */
(PID.TID 0000.0001)                 3.043758085573489E+05,      /* I =*** */
(PID.TID 0000.0001)                 3.016659012529000E+05,      /* I =*** */
(PID.TID 0000.0001)                 2.991218910822632E+05,      /* I =*** */
(PID.TID 0000.0001)                 2.968528632519549E+05,      /* I =*** */
(PID.TID 0000.0001)                 2.949617148863616E+05,      /* I =*** */
(PID.TID 0000.0001)                 2.935386689892191E+05,      /* I =*** */
(PID.TID 0000.0001)                 2.926545230536374E+05,      /* I =*** */
(PID.TID 0000.0001)                 2.647274964828301E+05,      /* I =*** */
(PID.TID 0000.0001)                 2.653456356424517E+05,      /* I =*** */
(PID.TID 0000.0001)                 2.671753991965412E+05,      /* I =*** */
(PID.TID 0000.0001)                 2.700508040612306E+05,      /* I =*** */
(PID.TID 0000.0001)                 2.737508146608168E+05,      /* I =*** */
(PID.TID 0000.0001)                 2.780276168082243E+05,      /* I =*** */
(PID.TID 0000.0001)                 2.826379708415628E+05,      /* I =*** */
(PID.TID 0000.0001)                 2.873620334559252E+05,      /* I =*** */
(PID.TID 0000.0001)                 2.920110325953347E+05,      /* I =*** */
(PID.TID 0000.0001)                 2.964277678938787E+05,      /* I =*** */
(PID.TID 0000.0001)                 3.004836638020456E+05,      /* I =*** */
(PID.TID 0000.0001)                 3.040748366383395E+05,      /* I =*** */
(PID.TID 0000.0001)                 3.071184425324030E+05,      /* I =*** */
(PID.TID 0000.0001)                 3.095497845682837E+05,      /* I =*** */
(PID.TID 0000.0001)                 3.113202383405265E+05,      /* I =*** */
(PID.TID 0000.0001)                 3.123958777280941E+05,      /* I =*** */
(PID.TID 0000.0001)                 3.127567211383312E+05,      /* I =*** */
(PID.TID 0000.0001)                 3.123958777280941E+05,      /* I =*** */
(PID.TID 0000.0001)                 3.113202383405265E+05,      /* I =*** */
(PID.TID 0000.0001)                 3.095497845682837E+05,      /* I =*** */
(PID.TID 0000.0001)                 3.071184425324030E+05,      /* I =*** */
(PID.TID 0000.0001)                 3.040748366383395E+05,      /* I =*** */
(PID.TID 0000.0001)                 3.004836638020456E+05,      /* I =*** */
(PID.TID 0000.0001)                 2.964277678938787E+05,      /* I =*** */
(PID.TID 0000.0001)                 2.920110325953347E+05,      /* I =*** */
(PID.TID 0000.0001)                 2.873620334559252E+05,      /* I =*** */
(PID.TID 0000.0001)                 2.826379708415628E+05,      /* I =*** */
(PID.TID 0000.0001)                 2.780276168082243E+05,      /* I =*** */
(PID.TID 0000.0001)                 2.737508146608168E+05,      /* I =*** */
(PID.TID 0000.0001)                 2.700508040612306E+05,      /* I =*** */
(PID.TID 0000.0001)                 2.671753991965412E+05,      /* I =*** */
(PID.TID 0000.0001)                 2.653456356424517E+05,      /* I =*** */
(PID.TID 0000.0001)                 2.133486626971531E+05,      /* I =*** */
(PID.TID 0000.0001)                 2.154101527595057E+05,      /* I =*** */
(PID.TID 0000.0001)                 2.211519075665486E+05,      /* I =*** */
(PID.TID 0000.0001)                 2.292508886976699E+05,      /* I =*** */
(PID.TID 0000.0001)                 2.384665985420439E+05,      /* I =*** */
(PID.TID 0000.0001)                 2.479326143289449E+05,      /* I =*** */
(PID.TID 0000.0001)                 2.571317856571183E+05,      /* I =*** */
(PID.TID 0000.0001)                 2.657743747017959E+05,      /* I =*** */
(PID.TID 0000.0001)                 2.736990267615226E+05,      /* I =*** */
(PID.TID 0000.0001)                 2.808126658182779E+05,      /* I =*** */
(PID.TID 0000.0001)                 2.870578357484073E+05,      /* I =*** */
(PID.TID 0000.0001)                 2.923958928385492E+05,      /* I =*** */
(PID.TID 0000.0001)                 2.967987247986380E+05,      /* I =*** */
(PID.TID 0000.0001)                 3.002449168090383E+05,      /* I =*** */
(PID.TID 0000.0001)                 3.027181755059779E+05,      /* I =*** */
(PID.TID 0000.0001)                 3.042068401906188E+05,      /* I =*** */
(PID.TID 0000.0001)                 3.047039405458409E+05,      /* I =*** */
(PID.TID 0000.0001)                 3.042068401906188E+05,      /* I =*** */
(PID.TID 0000.0001)                 3.027181755059779E+05,      /* I =*** */
(PID.TID 0000.0001)                 3.002449168090383E+05,      /* I =*** */
(PID.TID 0000.0001)                 2.967987247986380E+05,      /* I =*** */
(PID.TID 0000.0001)                 2.923958928385492E+05,      /* I =*** */
(PID.TID 0000.0001)                 2.870578357484073E+05,      /* I =*** */
(PID.TID 0000.0001)                 2.808126658182779E+05,      /* I =*** */
(PID.TID 0000.0001)                 2.736990267615226E+05,      /* I =*** */
(PID.TID 0000.0001)                 2.657743747017959E+05,      /* I =*** */
(PID.TID 0000.0001)                 2.571317856571183E+05,      /* I =*** */
(PID.TID 0000.0001)                 2.479326143289449E+05,      /* I =*** */
(PID.TID 0000.0001)                 2.384665985420439E+05,      /* I =*** */
(PID.TID 0000.0001)                 2.292508886976699E+05,      /* I =*** */
(PID.TID 0000.0001)                 2.211519075665486E+05,      /* I =*** */
(PID.TID 0000.0001)                 2.154101527595057E+05       /* I =*** */
(PID.TID 0000.0001)     ;
(PID.TID 0000.0001) dxV =  /* dxV(1,:,1,:) ( m - cartesian, degrees - spherical ) */
(PID.TID 0000.0001)                 8.015229982413632E+04,      /* J =  1 */
(PID.TID 0000.0001)                 1.362652340208229E+05,      /* J =  2 */
(PID.TID 0000.0001)                 1.701080315742101E+05,      /* J =  3 */
(PID.TID 0000.0001)                 1.942331448101592E+05       /* J =  4 */
(PID.TID 0000.0001)     ;
(PID.TID 0000.0001) dyU =  /* dyU(:,1,:,1) ( m - cartesian, degrees - spherical ) */
(PID.TID 0000.0001)                 8.015229982413632E+04,      /* I =  1 */
(PID.TID 0000.0001)                 1.362652340208229E+05,      /* I =  2 */
(PID.TID 0000.0001)                 1.701080315742101E+05,      /* I =  3 */
(PID.TID 0000.0001)                 1.942331448101592E+05,      /* I =  4 */
(PID.TID 0000.0001)                 2.133486626971531E+05,      /* I =  5 */
(PID.TID 0000.0001)                 2.292584591272880E+05,      /* I =  6 */
(PID.TID 0000.0001)                 2.428369969078989E+05,      /* I =  7 */
(PID.TID 0000.0001)                 2.545652950875683E+05,      /* I =  8 */
(PID.TID 0000.0001)                 2.647274964828301E+05,      /* I =  9 */
(PID.TID 0000.0001)                 2.734980225206389E+05,      /* I = 10 */
(PID.TID 0000.0001)                 2.809856491525217E+05,      /* I = 11 */
(PID.TID 0000.0001)                 2.872580915202295E+05,      /* I = 12 */
(PID.TID 0000.0001)                 2.923567890694162E+05,      /* I = 13 */
(PID.TID 0000.0001)                 2.963063101754721E+05,      /* I = 14 */
(PID.TID 0000.0001)                 2.991205495886625E+05,      /* I = 15 */
(PID.TID 0000.0001)                 3.008068453676764E+05,      /* I = 16 */
(PID.TID 0000.0001)                 3.013686170436881E+05,      /* I = 17 */
(PID.TID 0000.0001)                 3.008068453676764E+05,      /* I = 18 */
(PID.TID 0000.0001)                 2.991205495886625E+05,      /* I = 19 */
(PID.TID 0000.0001)                 2.963063101754721E+05,      /* I = 20 */
(PID.TID 0000.0001)                 2.923567890694162E+05,      /* I = 21 */
(PID.TID 0000.0001)                 2.872580915202295E+05,      /* I = 22 */
(PID.TID 0000.0001)                 2.809856491525217E+05,      /* I = 23 */
(PID.TID 0000.0001)                 2.734980225206389E+05,      /* I = 24 */
(PID.TID 0000.0001)                 2.647274964828301E+05,      /* I = 25 */
(PID.TID 0000.0001)                 2.545652950875683E+05,      /* I = 26 */
(PID.TID 0000.0001)                 2.428369969078989E+05,      /* I = 27 */
(PID.TID 0000.0001)                 2.292584591272880E+05,      /* I = 28 */
(PID.TID 0000.0001)                 2.133486626971531E+05,      /* I = 29 */
(PID.TID 0000.0001)                 1.942331448101592E+05,      /* I = 30 */
(PID.TID 0000.0001)                 1.701080315742101E+05,      /* I = 31 */
(PID.TID 0000.0001)                 1.362652340208229E+05,      /* I = 32 */
(PID.TID 0000.0001)                 2.130490056267208E+05,      /* I = 33 */
(PID.TID 0000.0001)                 2.151952039065076E+05,      /* I = 34 */
(PID.TID 0000.0001)                 2.210230919927305E+05,      /* I = 35 */
(PID.TID 0000.0001)                 2.292001529844996E+05,      /* I = 36 */
(PID.TID 0000.0001)                 2.384665985420439E+05,      /* I = 37 */
(PID.TID 0000.0001)                 2.479605721914797E+05,      /* I = 38 */
(PID.TID 0000.0001)                 2.571738365323154E+05,      /* I = 39 */
(PID.TID 0000.0001)                 2.658231272290965E+05,      /* I = 40 */
(PID.TID 0000.0001)                 2.737508146608168E+05,      /* I = 41 */
(PID.TID 0000.0001)                 2.808657735933971E+05,      /* I = 42 */
(PID.TID 0000.0001)                 2.871115158847630E+05,      /* I = 43 */
(PID.TID 0000.0001)                 2.924498520269555E+05,      /* I = 44 */
(PID.TID 0000.0001)                 2.968528632519549E+05,      /* I = 45 */
(PID.TID 0000.0001)                 3.002992005891529E+05,      /* I = 46 */
(PID.TID 0000.0001)                 3.027725787805746E+05,      /* I = 47 */
(PID.TID 0000.0001)                 3.042613245420325E+05,      /* I = 48 */
(PID.TID 0000.0001)                 3.047583645125296E+05,      /* I = 49 */
(PID.TID 0000.0001)                 3.042613245420325E+05,      /* I = 50 */
(PID.TID 0000.0001)                 3.027725787805746E+05,      /* I = 51 */
(PID.TID 0000.0001)                 3.002992005891529E+05,      /* I = 52 */
(PID.TID 0000.0001)                 2.968528632519549E+05,      /* I = 53 */
(PID.TID 0000.0001)                 2.924498520269555E+05,      /* I = 54 */
(PID.TID 0000.0001)                 2.871115158847630E+05,      /* I = 55 */
(PID.TID 0000.0001)                 2.808657735933971E+05,      /* I = 56 */
(PID.TID 0000.0001)                 2.737508146608168E+05,      /* I = 57 */
(PID.TID 0000.0001)                 2.658231272290965E+05,      /* I = 58 */
(PID.TID 0000.0001)                 2.571738365323154E+05,      /* I = 59 */
(PID.TID 0000.0001)                 2.479605721914797E+05,      /* I = 60 */
(PID.TID 0000.0001)                 2.384665985420439E+05,      /* I = 61 */
(PID.TID 0000.0001)                 2.292001529844996E+05,      /* I = 62 */
(PID.TID 0000.0001)                 2.210230919927305E+05,      /* I = 63 */
(PID.TID 0000.0001)                 2.151952039065076E+05,      /* I = 64 */
(PID.TID 0000.0001)                 2.646201463834826E+05,      /* I = 65 */
(PID.TID 0000.0001)                 2.652526003845025E+05,      /* I = 66 */
(PID.TID 0000.0001)                 2.670927303518708E+05,      /* I = 67 */
(PID.TID 0000.0001)                 2.699827671480681E+05,      /* I = 68 */
(PID.TID 0000.0001)                 2.736990267615226E+05,      /* I = 69 */
(PID.TID 0000.0001)                 2.779916120128523E+05,      /* I = 70 */
(PID.TID 0000.0001)                 2.826160808445005E+05,      /* I = 71 */
(PID.TID 0000.0001)                 2.873521397259874E+05,      /* I = 72 */
(PID.TID 0000.0001)                 2.920110325953347E+05,      /* I = 73 */
(PID.TID 0000.0001)                 2.964357882521720E+05,      /* I = 74 */
(PID.TID 0000.0001)                 3.004981128361199E+05,      /* I = 75 */
(PID.TID 0000.0001)                 3.040943772920999E+05,      /* I = 76 */
(PID.TID 0000.0001)                 3.071419371354089E+05,      /* I = 77 */
(PID.TID 0000.0001)                 3.095762378441247E+05,      /* I = 78 */
(PID.TID 0000.0001)                 3.113487493857945E+05,      /* I = 79 */
(PID.TID 0000.0001)                 3.124256032686725E+05,      /* I = 80 */
(PID.TID 0000.0001)                 3.127867656729039E+05,      /* I = 81 */
(PID.TID 0000.0001)                 3.124256032686725E+05,      /* I = 82 */
(PID.TID 0000.0001)                 3.113487493857945E+05,      /* I = 83 */
(PID.TID 0000.0001)                 3.095762378441247E+05,      /* I = 84 */
(PID.TID 0000.0001)                 3.071419371354089E+05,      /* I = 85 */
(PID.TID 0000.0001)                 3.040943772920999E+05,      /* I = 86 */
(PID.TID 0000.0001)                 3.004981128361199E+05,      /* I = 87 */
(PID.TID 0000.0001)                 2.964357882521720E+05,      /* I = 88 */
(PID.TID 0000.0001)                 2.920110325953347E+05,      /* I = 89 */
(PID.TID 0000.0001)                 2.873521397259874E+05,      /* I = 90 */
(PID.TID 0000.0001)                 2.826160808445005E+05,      /* I = 91 */
(PID.TID 0000.0001)                 2.779916120128523E+05,      /* I = 92 */
(PID.TID 0000.0001)                 2.736990267615226E+05,      /* I = 93 */
(PID.TID 0000.0001)                 2.699827671480681E+05,      /* I = 94 */
(PID.TID 0000.0001)                 2.670927303518708E+05,      /* I = 95 */
(PID.TID 0000.0001)                 2.652526003845025E+05,      /* I = 96 */
(PID.TID 0000.0001)                 2.922844849381675E+05,      /* I = 97 */
(PID.TID 0000.0001)                 2.925855316768774E+05,      /* I = 98 */
(PID.TID 0000.0001)                 2.934729433396924E+05,      /* I = 99 */
(PID.TID 0000.0001)                 2.949010866948440E+05,      /* I =100 */
(PID.TID 0000.0001)                 2.967987247986380E+05,      /* I =101 */
(PID.TID 0000.0001)                 2.990751451996336E+05,      /* I =102 */
(PID.TID 0000.0001)                 3.016269818888814E+05,      /* I =103 */
(PID.TID 0000.0001)                 3.043447463267440E+05,      /* I =104 */
(PID.TID 0000.0001)                 3.071184425324030E+05,      /* I =105 */
(PID.TID 0000.0001)                 3.098420252519152E+05,      /* I =106 */
(PID.TID 0000.0001)                 3.124167445866441E+05,      /* I =107 */
(PID.TID 0000.0001)                 3.147535691213495E+05,      /* I =108 */
(PID.TID 0000.0001)                 3.167749168862456E+05,      /* I =109 */
(PID.TID 0000.0001)                 3.184158948257520E+05,      /* I =110 */
(PID.TID 0000.0001)                 3.196251931162167E+05,      /* I =111 */
(PID.TID 0000.0001)                 3.203657264011034E+05,      /* I =112 */
(PID.TID 0000.0001)                 3.206150718566154E+05,      /* I =113 */
(PID.TID 0000.0001)                 3.203657264011034E+05,      /* I =114 */
(PID.TID 0000.0001)                 3.196251931162167E+05,      /* I =115 */
(PID.TID 0000.0001)                 3.184158948257520E+05,      /* I =116 */
(PID.TID 0000.0001)                 3.167749168862456E+05,      /* I =117 */
(PID.TID 0000.0001)                 3.147535691213495E+05,      /* I =118 */
(PID.TID 0000.0001)                 3.124167445866441E+05,      /* I =119 */
(PID.TID 0000.0001)                 3.098420252519152E+05,      /* I =120 */
(PID.TID 0000.0001)                 3.071184425324030E+05,      /* I =121 */
(PID.TID 0000.0001)                 3.043447463267440E+05,      /* I =122 */
(PID.TID 0000.0001)                 3.016269818888814E+05,      /* I =123 */
(PID.TID 0000.0001)                 2.990751451996336E+05,      /* I =124 */
(PID.TID 0000.0001)                 2.967987247986380E+05,      /* I =125 */
(PID.TID 0000.0001)                 2.949010866948440E+05,      /* I =126 */
(PID.TID 0000.0001)                 2.934729433396924E+05,      /* I =127 */
(PID.TID 0000.0001)                 2.925855316768774E+05,      /* I =128 */
(PID.TID 0000.0001)                 3.013031486919771E+05,      /* I =129 */
(PID.TID 0000.0001)                 3.015274890091515E+05,      /* I =130 */
(PID.TID 0000.0001)                 3.021908563699420E+05,      /* I =131 */
(PID.TID 0000.0001)                 3.032648502024415E+05,      /* I =132 */
(PID.TID 0000.0001)                 3.047039405458409E+05,      /* I =133 */
(PID.TID 0000.0001)                 3.064479682824742E+05,      /* I =134 */
(PID.TID 0000.0001)                 3.084252792046263E+05,      /* I =135 */
(PID.TID 0000.0001)                 3.105562173056038E+05,      /* I =136 */
(PID.TID 0000.0001)                 3.127567211383312E+05,      /* I =137 */
(PID.TID 0000.0001)                 3.149418154158797E+05,      /* I =138 */
(PID.TID 0000.0001)                 3.170288504389129E+05,      /* I =139 */
(PID.TID 0000.0001)                 3.189403993331409E+05,      /* I =140 */
(PID.TID 0000.0001)                 3.206067683235888E+05,      /* I =141 */
(PID.TID 0000.0001)                 3.219681053727232E+05,      /* I =142 */
(PID.TID 0000.0001)                 3.229761089393431E+05,      /* I =143 */
(PID.TID 0000.0001)                 3.235953450756532E+05,      /* I =144 */
(PID.TID 0000.0001)                 3.238041816275029E+05,      /* I =145 */
(PID.TID 0000.0001)                 3.235953450756532E+05,      /* I =146 */
(PID.TID 0000.0001)                 3.229761089393431E+05,      /* I =147 */
(PID.TID 0000.0001)                 3.219681053727232E+05,      /* I =148 */
(PID.TID 0000.0001)                 3.206067683235888E+05,      /* I =149 */
(PID.TID 0000.0001)                 3.189403993331409E+05,      /* I =150 */
(PID.TID 0000.0001)                 3.170288504389129E+05,      /* I =151 */
(PID.TID 0000.0001)                 3.149418154158797E+05,      /* I =152 */
(PID.TID 0000.0001)                 3.127567211383312E+05,      /* I =153 */
(PID.TID 0000.0001)                 3.105562173056038E+05,      /* I =154 */
(PID.TID 0000.0001)                 3.084252792046263E+05,      /* I =155 */
(PID.TID 0000.0001)                 3.064479682824742E+05,      /* I =156 */
(PID.TID 0000.0001)                 3.047039405458409E+05,      /* I =157 */
(PID.TID 0000.0001)                 3.032648502024415E+05,      /* I =158 */
(PID.TID 0000.0001)                 3.021908563699420E+05,      /* I =159 */
(PID.TID 0000.0001)                 3.015274890091515E+05,      /* I =160 */
(PID.TID 0000.0001)                 2.922844849381675E+05,      /* I =161 */
(PID.TID 0000.0001)                 2.925855316768774E+05,      /* I =162 */
(PID.TID 0000.0001)                 2.934729433396924E+05,      /* I =163 */
(PID.TID 0000.0001)                 2.949010866948440E+05,      /* I =164 */
(PID.TID 0000.0001)                 2.967987247986380E+05,      /* I =165 */
(PID.TID 0000.0001)                 2.990751451996336E+05,      /* I =166 */
(PID.TID 0000.0001)                 3.016269818888814E+05,      /* I =167 */
(PID.TID 0000.0001)                 3.043447463267440E+05,      /* I =168 */
(PID.TID 0000.0001)                 3.071184425324030E+05,      /* I =169 */
(PID.TID 0000.0001)                 3.098420252519152E+05,      /* I =170 */
(PID.TID 0000.0001)                 3.124167445866441E+05,      /* I =171 */
(PID.TID 0000.0001)                 3.147535691213495E+05,      /* I =172 */
(PID.TID 0000.0001)                 3.167749168862456E+05,      /* I =173 */
(PID.TID 0000.0001)                 3.184158948257520E+05,      /* I =174 */
(PID.TID 0000.0001)                 3.196251931162167E+05,      /* I =175 */
(PID.TID 0000.0001)                 3.203657264011034E+05,      /* I =176 */
(PID.TID 0000.0001)                 3.206150718566154E+05,      /* I =177 */
(PID.TID 0000.0001)                 3.203657264011034E+05,      /* I =178 */
(PID.TID 0000.0001)                 3.196251931162167E+05,      /* I =179 */
(PID.TID 0000.0001)                 3.184158948257520E+05,      /* I =180 */
(PID.TID 0000.0001)                 3.167749168862456E+05,      /* I =181 */
(PID.TID 0000.0001)                 3.147535691213495E+05,      /* I =182 */
(PID.TID 0000.0001)                 3.124167445866441E+05,      /* I =183 */
(PID.TID 0000.0001)                 3.098420252519152E+05,      /* I =184 */
(PID.TID 0000.0001)                 3.071184425324030E+05,      /* I =185 */
(PID.TID 0000.0001)                 3.043447463267440E+05,      /* I =186 */
(PID.TID 0000.0001)                 3.016269818888814E+05,      /* I =187 */
(PID.TID 0000.0001)                 2.990751451996336E+05,      /* I =188 */
(PID.TID 0000.0001)                 2.967987247986380E+05,      /* I =189 */
(PID.TID 0000.0001)                 2.949010866948440E+05,      /* I =190 */
(PID.TID 0000.0001)                 2.934729433396924E+05,      /* I =191 */
(PID.TID 0000.0001)                 2.925855316768774E+05,      /* I =192 */
(PID.TID 0000.0001)                 2.646201463834826E+05,      /* I =193 */
(PID.TID 0000.0001)                 2.652526003845025E+05,      /* I =194 */
(PID.TID 0000.0001)                 2.670927303518708E+05,      /* I =195 */
(PID.TID 0000.0001)                 2.699827671480681E+05,      /* I =196 */
(PID.TID 0000.0001)                 2.736990267615226E+05,      /* I =197 */
(PID.TID 0000.0001)                 2.779916120128523E+05,      /* I =198 */
(PID.TID 0000.0001)                 2.826160808445005E+05,      /* I =199 */
(PID.TID 0000.0001)                 2.873521397259874E+05,      /* I =200 */
(PID.TID 0000.0001)                 2.920110325953347E+05,      /* I =201 */
(PID.TID 0000.0001)                 2.964357882521720E+05,      /* I =202 */
(PID.TID 0000.0001)                 3.004981128361199E+05,      /* I =203 */
(PID.TID 0000.0001)                 3.040943772920999E+05,      /* I =204 */
(PID.TID 0000.0001)                 3.071419371354089E+05,      /* I =205 */
(PID.TID 0000.0001)                 3.095762378441247E+05,      /* I =206 */
(PID.TID 0000.0001)                 3.113487493857945E+05,      /* I =207 */
(PID.TID 0000.0001)                 3.124256032686725E+05,      /* I =208 */
(PID.TID 0000.0001)                 3.127867656729039E+05,      /* I =209 */
(PID.TID 0000.0001)                 3.124256032686725E+05,      /* I =210 */
(PID.TID 0000.0001)                 3.113487493857945E+05,      /* I =211 */
(PID.TID 0000.0001)                 3.095762378441247E+05,      /* I =212 */
(PID.TID 0000.0001)                 3.071419371354089E+05,      /* I =213 */
(PID.TID 0000.0001)                 3.040943772920999E+05,      /* I =214 */
(PID.TID 0000.0001)                 3.004981128361199E+05,      /* I =215 */
(PID.TID 0000.0001)                 2.964357882521720E+05,      /* I =216 */
(PID.TID 0000.0001)                 2.920110325953347E+05,      /* I =217 */
(PID.TID 0000.0001)                 2.873521397259874E+05,      /* I =218 */
(PID.TID 0000.0001)                 2.826160808445005E+05,      /* I =219 */
(PID.TID 0000.0001)                 2.779916120128523E+05,      /* I =220 */
(PID.TID 0000.0001)                 2.736990267615226E+05,      /* I =221 */
(PID.TID 0000.0001)                 2.699827671480681E+05,      /* I =222 */
(PID.TID 0000.0001)                 2.670927303518708E+05,      /* I =223 */
(PID.TID 0000.0001)                 2.652526003845025E+05,      /* I =224 */
(PID.TID 0000.0001)                 2.130490056267208E+05,      /* I =225 */
(PID.TID 0000.0001)                 2.151952039065076E+05,      /* I =226 */
(PID.TID 0000.0001)                 2.210230919927305E+05,      /* I =227 */
(PID.TID 0000.0001)                 2.292001529844996E+05,      /* I =228 */
(PID.TID 0000.0001)                 2.384665985420439E+05,      /* I =229 */
(PID.TID 0000.0001)                 2.479605721914797E+05,      /* I =230 */
(PID.TID 0000.0001)                 2.571738365323154E+05,      /* I =231 */
(PID.TID 0000.0001)                 2.658231272290965E+05,      /* I =232 */
(PID.TID 0000.0001)                 2.737508146608168E+05,      /* I =233 */
(PID.TID 0000.0001)                 2.808657735933971E+05,      /* I =234 */
(PID.TID 0000.0001)                 2.871115158847630E+05,      /* I =235 */
(PID.TID 0000.0001)                 2.924498520269555E+05,      /* I =236 */
(PID.TID 0000.0001)                 2.968528632519549E+05,      /* I =237 */
(PID.TID 0000.0001)                 3.002992005891529E+05,      /* I =238 */
(PID.TID 0000.0001)                 3.027725787805746E+05,      /* I =239 */
(PID.TID 0000.0001)                 3.042613245420325E+05,      /* I =240 */
(PID.TID 0000.0001)                 3.047583645125296E+05,      /* I =241 */
(PID.TID 0000.0001)                 3.042613245420325E+05,      /* I =242 */
(PID.TID 0000.0001)                 3.027725787805746E+05,      /* I =243 */
(PID.TID 0000.0001)                 3.002992005891529E+05,      /* I =244 */
(PID.TID 0000.0001)                 2.968528632519549E+05,      /* I =245 */
(PID.TID 0000.0001)                 2.924498520269555E+05,      /* I =246 */
(PID.TID 0000.0001)                 2.871115158847630E+05,      /* I =247 */
(PID.TID 0000.0001)                 2.808657735933971E+05,      /* I =248 */
(PID.TID 0000.0001)                 2.737508146608168E+05,      /* I =249 */
(PID.TID 0000.0001)                 2.658231272290965E+05,      /* I =250 */
(PID.TID 0000.0001)                 2.571738365323154E+05,      /* I =251 */
(PID.TID 0000.0001)                 2.479605721914797E+05,      /* I =252 */
(PID.TID 0000.0001)                 2.384665985420439E+05,      /* I =253 */
(PID.TID 0000.0001)                 2.292001529844996E+05,      /* I =254 */
(PID.TID 0000.0001)                 2.210230919927305E+05,      /* I =255 */
(PID.TID 0000.0001)                 2.151952039065076E+05,      /* I =256 */
(PID.TID 0000.0001)                 8.015229982413632E+04,      /* I =257 */
(PID.TID 0000.0001)                 1.362652340208229E+05,      /* I =258 */
(PID.TID 0000.0001)                 1.701080315742101E+05,      /* I =259 */
(PID.TID 0000.0001)                 1.942331448101592E+05,      /* I =260 */
(PID.TID 0000.0001)                 2.133486626971531E+05,      /* I =261 */
(PID.TID 0000.0001)                 2.292584591272880E+05,      /* I =262 */
(PID.TID 0000.0001)                 2.428369969078989E+05,      /* I =263 */
(PID.TID 0000.0001)                 2.545652950875683E+05,      /* I =264 */
(PID.TID 0000.0001)                 2.647274964828301E+05,      /* I =265 */
(PID.TID 0000.0001)                 2.734980225206389E+05,      /* I =266 */
(PID.TID 0000.0001)                 2.809856491525217E+05,      /* I =267 */
(PID.TID 0000.0001)                 2.872580915202295E+05,      /* I =268 */
(PID.TID 0000.0001)                 2.923567890694162E+05,      /* I =269 */
(PID.TID 0000.0001)                 2.963063101754721E+05,      /* I =270 */
(PID.TID 0000.0001)                 2.991205495886625E+05,      /* I =271 */
(PID.TID 0000.0001)                 3.008068453676764E+05,      /* I =272 */
(PID.TID 0000.0001)                 3.013686170436881E+05,      /* I =273 */
(PID.TID 0000.0001)                 3.008068453676764E+05,      /* I =274 */
(PID.TID 0000.0001)                 2.991205495886625E+05,      /* I =275 */
(PID.TID 0000.0001)                 2.963063101754721E+05,      /* I =276 */
(PID.TID 0000.0001)                 2.923567890694162E+05,      /* I =277 */
(PID.TID 0000.0001)                 2.872580915202295E+05,      /* I =278 */
(PID.TID 0000.0001)                 2.809856491525217E+05,      /* I =279 */
(PID.TID 0000.0001)                 2.734980225206389E+05,      /* I =280 */
(PID.TID 0000.0001)                 2.647274964828301E+05,      /* I =281 */
(PID.TID 0000.0001)                 2.545652950875683E+05,      /* I =282 */
(PID.TID 0000.0001)                 2.428369969078989E+05,      /* I =283 */
(PID.TID 0000.0001)                 2.292584591272880E+05,      /* I =284 */
(PID.TID 0000.0001)                 2.133486626971531E+05,      /* I =285 */
(PID.TID 0000.0001)                 1.942331448101592E+05,      /* I =286 */
(PID.TID 0000.0001)                 1.701080315742101E+05,      /* I =287 */
(PID.TID 0000.0001)                 1.362652340208229E+05,      /* I =288 */
(PID.TID 0000.0001)                 2.130490056267208E+05,      /* I =289 */
(PID.TID 0000.0001)                 2.151952039065076E+05,      /* I =290 */
(PID.TID 0000.0001)                 2.210230919927305E+05,      /* I =291 */
(PID.TID 0000.0001)                 2.292001529844996E+05,      /* I =292 */
(PID.TID 0000.0001)                 2.384665985420439E+05,      /* I =293 */
(PID.TID 0000.0001)                 2.479605721914797E+05,      /* I =294 */
(PID.TID 0000.0001)                 2.571738365323154E+05,      /* I =295 */
(PID.TID 0000.0001)                 2.658231272290965E+05,      /* I =296 */
(PID.TID 0000.0001)                 2.737508146608168E+05,      /* I =297 */
(PID.TID 0000.0001)                 2.808657735933971E+05,      /* I =298 */
(PID.TID 0000.0001)                 2.871115158847630E+05,      /* I =299 */
(PID.TID 0000.0001)                 2.924498520269555E+05,      /* I =300 */
(PID.TID 0000.0001)                 2.968528632519549E+05,      /* I =301 */
(PID.TID 0000.0001)                 3.002992005891529E+05,      /* I =302 */
(PID.TID 0000.0001)                 3.027725787805746E+05,      /* I =303 */
(PID.TID 0000.0001)                 3.042613245420325E+05,      /* I =304 */
(PID.TID 0000.0001)                 3.047583645125296E+05,      /* I =305 */
(PID.TID 0000.0001)                 3.042613245420325E+05,      /* I =306 */
(PID.TID 0000.0001)                 3.027725787805746E+05,      /* I =307 */
(PID.TID 0000.0001)                 3.002992005891529E+05,      /* I =308 */
(PID.TID 0000.0001)                 2.968528632519549E+05,      /* I =309 */
(PID.TID 0000.0001)                 2.924498520269555E+05,      /* I =310 */
(PID.TID 0000.0001)                 2.871115158847630E+05,      /* I =311 */
(PID.TID 0000.0001)                 2.808657735933971E+05,      /* I =312 */
(PID.TID 0000.0001)                 2.737508146608168E+05,      /* I =313 */
(PID.TID 0000.0001)                 2.658231272290965E+05,      /* I =314 */
(PID.TID 0000.0001)                 2.571738365323154E+05,      /* I =315 */
(PID.TID 0000.0001)                 2.479605721914797E+05,      /* I =316 */
(PID.TID 0000.0001)                 2.384665985420439E+05,      /* I =317 */
(PID.TID 0000.0001)                 2.292001529844996E+05,      /* I =318 */
(PID.TID 0000.0001)                 2.210230919927305E+05,      /* I =319 */
(PID.TID 0000.0001)                 2.151952039065076E+05,      /* I =320 */
(PID.TID 0000.0001)                 2.646201463834826E+05,      /* I =321 */
(PID.TID 0000.0001)                 2.652526003845025E+05,      /* I =322 */
(PID.TID 0000.0001)                 2.670927303518708E+05,      /* I =323 */
(PID.TID 0000.0001)                 2.699827671480681E+05,      /* I =324 */
(PID.TID 0000.0001)                 2.736990267615226E+05,      /* I =325 */
(PID.TID 0000.0001)                 2.779916120128523E+05,      /* I =326 */
(PID.TID 0000.0001)                 2.826160808445005E+05,      /* I =327 */
(PID.TID 0000.0001)                 2.873521397259874E+05,      /* I =328 */
(PID.TID 0000.0001)                 2.920110325953347E+05,      /* I =329 */
(PID.TID 0000.0001)                 2.964357882521720E+05,      /* I =330 */
(PID.TID 0000.0001)                 3.004981128361199E+05,      /* I =331 */
(PID.TID 0000.0001)                 3.040943772920999E+05,      /* I =332 */
(PID.TID 0000.0001)                 3.071419371354089E+05,      /* I =333 */
(PID.TID 0000.0001)                 3.095762378441247E+05,      /* I =334 */
(PID.TID 0000.0001)                 3.113487493857945E+05,      /* I =335 */
(PID.TID 0000.0001)                 3.124256032686725E+05,      /* I =336 */
(PID.TID 0000.0001)                 3.127867656729039E+05,      /* I =337 */
(PID.TID 0000.0001)                 3.124256032686725E+05,      /* I =338 */
(PID.TID 0000.0001)                 3.113487493857945E+05,      /* I =339 */
(PID.TID 0000.0001)                 3.095762378441247E+05,      /* I =340 */
(PID.TID 0000.0001)                 3.071419371354089E+05,      /* I =341 */
(PID.TID 0000.0001)                 3.040943772920999E+05,      /* I =342 */
(PID.TID 0000.0001)                 3.004981128361199E+05,      /* I =343 */
(PID.TID 0000.0001)                 2.964357882521720E+05,      /* I =344 */
(PID.TID 0000.0001)                 2.920110325953347E+05,      /* I =345 */
(PID.TID 0000.0001)                 2.873521397259874E+05,      /* I =346 */
(PID.TID 0000.0001)                 2.826160808445005E+05,      /* I =347 */
(PID.TID 0000.0001)                 2.779916120128523E+05,      /* I =348 */
(PID.TID 0000.0001)                 2.736990267615226E+05,      /* I =349 */
(PID.TID 0000.0001)                 2.699827671480681E+05,      /* I =350 */
(PID.TID 0000.0001)                 2.670927303518708E+05,      /* I =351 */
(PID.TID 0000.0001)                 2.652526003845025E+05,      /* I =352 */
(PID.TID 0000.0001)                 2.922844849381675E+05,      /* I =353 */
(PID.TID 0000.0001)                 2.925855316768774E+05,      /* I =354 */
(PID.TID 0000.0001)                 2.934729433396924E+05,      /* I =355 */
(PID.TID 0000.0001)                 2.949010866948440E+05,      /* I =356 */
(PID.TID 0000.0001)                 2.967987247986380E+05,      /* I =357 */
(PID.TID 0000.0001)                 2.990751451996336E+05,      /* I =358 */
(PID.TID 0000.0001)                 3.016269818888814E+05,      /* I =359 */
(PID.TID 0000.0001)                 3.043447463267440E+05,      /* I =360 */
(PID.TID 0000.0001)                 3.071184425324030E+05,      /* I =361 */
(PID.TID 0000.0001)                 3.098420252519152E+05,      /* I =362 */
(PID.TID 0000.0001)                 3.124167445866441E+05,      /* I =363 */
(PID.TID 0000.0001)                 3.147535691213495E+05,      /* I =364 */
(PID.TID 0000.0001)                 3.167749168862456E+05,      /* I =365 */
(PID.TID 0000.0001)                 3.184158948257520E+05,      /* I =366 */
(PID.TID 0000.0001)                 3.196251931162167E+05,      /* I =367 */
(PID.TID 0000.0001)                 3.203657264011034E+05,      /* I =368 */
(PID.TID 0000.0001)                 3.206150718566154E+05,      /* I =369 */
(PID.TID 0000.0001)                 3.203657264011034E+05,      /* I =370 */
(PID.TID 0000.0001)                 3.196251931162167E+05,      /* I =371 */
(PID.TID 0000.0001)                 3.184158948257520E+05,      /* I =372 */
(PID.TID 0000.0001)                 3.167749168862456E+05,      /* I =373 */
(PID.TID 0000.0001)                 3.147535691213495E+05,      /* I =374 */
(PID.TID 0000.0001)                 3.124167445866441E+05,      /* I =375 */
(PID.TID 0000.0001)                 3.098420252519152E+05,      /* I =376 */
(PID.TID 0000.0001)                 3.071184425324030E+05,      /* I =377 */
(PID.TID 0000.0001)                 3.043447463267440E+05,      /* I =378 */
(PID.TID 0000.0001)                 3.016269818888814E+05,      /* I =379 */
(PID.TID 0000.0001)                 2.990751451996336E+05,      /* I =380 */
(PID.TID 0000.0001)                 2.967987247986380E+05,      /* I =381 */
(PID.TID 0000.0001)                 2.949010866948440E+05,      /* I =382 */
(PID.TID 0000.0001)                 2.934729433396924E+05,      /* I =383 */
(PID.TID 0000.0001)                 2.925855316768774E+05,      /* I =384 */
(PID.TID 0000.0001)                 3.013031486919771E+05,      /* I =385 */
(PID.TID 0000.0001)                 3.015274890091515E+05,      /* I =386 */
(PID.TID 0000.0001)                 3.021908563699420E+05,      /* I =387 */
(PID.TID 0000.0001)                 3.032648502024415E+05,      /* I =388 */
(PID.TID 0000.0001)                 3.047039405458409E+05,      /* I =389 */
(PID.TID 0000.0001)                 3.064479682824742E+05,      /* I =390 */
(PID.TID 0000.0001)                 3.084252792046263E+05,      /* I =391 */
(PID.TID 0000.0001)                 3.105562173056038E+05,      /* I =392 */
(PID.TID 0000.0001)                 3.127567211383312E+05,      /* I =393 */
(PID.TID 0000.0001)                 3.149418154158797E+05,      /* I =394 */
(PID.TID 0000.0001)                 3.170288504389129E+05,      /* I =395 */
(PID.TID 0000.0001)                 3.189403993331409E+05,      /* I =396 */
(PID.TID 0000.0001)                 3.206067683235888E+05,      /* I =397 */
(PID.TID 0000.0001)                 3.219681053727232E+05,      /* I =398 */
(PID.TID 0000.0001)                 3.229761089393431E+05,      /* I =399 */
(PID.TID 0000.0001)                 3.235953450756532E+05,      /* I =400 */
(PID.TID 0000.0001)                 3.238041816275029E+05,      /* I =401 */
(PID.TID 0000.0001)                 3.235953450756532E+05,      /* I =402 */
(PID.TID 0000.0001)                 3.229761089393431E+05,      /* I =403 */
(PID.TID 0000.0001)                 3.219681053727232E+05,      /* I =404 */
(PID.TID 0000.0001)                 3.206067683235888E+05,      /* I =405 */
(PID.TID 0000.0001)                 3.189403993331409E+05,      /* I =406 */
(PID.TID 0000.0001)                 3.170288504389129E+05,      /* I =407 */
(PID.TID 0000.0001)                 3.149418154158797E+05,      /* I =408 */
(PID.TID 0000.0001)                 3.127567211383312E+05,      /* I =409 */
(PID.TID 0000.0001)                 3.105562173056038E+05,      /* I =410 */
(PID.TID 0000.0001)                 3.084252792046263E+05,      /* I =411 */
(PID.TID 0000.0001)                 3.064479682824742E+05,      /* I =412 */
(PID.TID 0000.0001)                 3.047039405458409E+05,      /* I =413 */
(PID.TID 0000.0001)                 3.032648502024415E+05,      /* I =414 */
(PID.TID 0000.0001)                 3.021908563699420E+05,      /* I =415 */
(PID.TID 0000.0001)                 3.015274890091515E+05,      /* I =416 */
(PID.TID 0000.0001)                 2.922844849381675E+05,      /* I =417 */
(PID.TID 0000.0001)                 2.925855316768774E+05,      /* I =418 */
(PID.TID 0000.0001)                 2.934729433396924E+05,      /* I =419 */
(PID.TID 0000.0001)                 2.949010866948440E+05,      /* I =420 */
(PID.TID 0000.0001)                 2.967987247986380E+05,      /* I =421 */
(PID.TID 0000.0001)                 2.990751451996336E+05,      /* I =422 */
(PID.TID 0000.0001)                 3.016269818888814E+05,      /* I =423 */
(PID.TID 0000.0001)                 3.043447463267440E+05,      /* I =424 */
(PID.TID 0000.0001)                 3.071184425324030E+05,      /* I =425 */
(PID.TID 0000.0001)                 3.098420252519152E+05,      /* I =426 */
(PID.TID 0000.0001)                 3.124167445866441E+05,      /* I =427 */
(PID.TID 0000.0001)                 3.147535691213495E+05,      /* I =428 */
(PID.TID 0000.0001)                 3.167749168862456E+05,      /* I =429 */
(PID.TID 0000.0001)                 3.184158948257520E+05,      /* I =430 */
(PID.TID 0000.0001)                 3.196251931162167E+05,      /* I =431 */
(PID.TID 0000.0001)                 3.203657264011034E+05,      /* I =432 */
(PID.TID 0000.0001)                 3.206150718566154E+05,      /* I =433 */
(PID.TID 0000.0001)                 3.203657264011034E+05,      /* I =434 */
(PID.TID 0000.0001)                 3.196251931162167E+05,      /* I =435 */
(PID.TID 0000.0001)                 3.184158948257520E+05,      /* I =436 */
(PID.TID 0000.0001)                 3.167749168862456E+05,      /* I =437 */
(PID.TID 0000.0001)                 3.147535691213495E+05,      /* I =438 */
(PID.TID 0000.0001)                 3.124167445866441E+05,      /* I =439 */
(PID.TID 0000.0001)                 3.098420252519152E+05,      /* I =440 */
(PID.TID 0000.0001)                 3.071184425324030E+05,      /* I =441 */
(PID.TID 0000.0001)                 3.043447463267440E+05,      /* I =442 */
(PID.TID 0000.0001)                 3.016269818888814E+05,      /* I =443 */
(PID.TID 0000.0001)                 2.990751451996336E+05,      /* I =444 */
(PID.TID 0000.0001)                 2.967987247986380E+05,      /* I =445 */
(PID.TID 0000.0001)                 2.949010866948440E+05,      /* I =446 */
(PID.TID 0000.0001)                 2.934729433396924E+05,      /* I =447 */
(PID.TID 0000.0001)                 2.925855316768774E+05,      /* I =448 */
(PID.TID 0000.0001)                 2.646201463834826E+05,      /* I =449 */
(PID.TID 0000.0001)                 2.652526003845025E+05,      /* I =450 */
(PID.TID 0000.0001)                 2.670927303518708E+05,      /* I =451 */
(PID.TID 0000.0001)                 2.699827671480681E+05,      /* I =452 */
(PID.TID 0000.0001)                 2.736990267615226E+05,      /* I =453 */
(PID.TID 0000.0001)                 2.779916120128523E+05,      /* I =454 */
(PID.TID 0000.0001)                 2.826160808445005E+05,      /* I =455 */
(PID.TID 0000.0001)                 2.873521397259874E+05,      /* I =456 */
(PID.TID 0000.0001)                 2.920110325953347E+05,      /* I =457 */
(PID.TID 0000.0001)                 2.964357882521720E+05,      /* I =458 */
(PID.TID 0000.0001)                 3.004981128361199E+05,      /* I =459 */
(PID.TID 0000.0001)                 3.040943772920999E+05,      /* I =460 */
(PID.TID 0000.0001)                 3.071419371354089E+05,      /* I =461 */
(PID.TID 0000.0001)                 3.095762378441247E+05,      /* I =462 */
(PID.TID 0000.0001)                 3.113487493857945E+05,      /* I =463 */
(PID.TID 0000.0001)                 3.124256032686725E+05,      /* I =464 */
(PID.TID 0000.0001)                 3.127867656729039E+05,      /* I =465 */
(PID.TID 0000.0001)                 3.124256032686725E+05,      /* I =466 */
(PID.TID 0000.0001)                 3.113487493857945E+05,      /* I =467 */
(PID.TID 0000.0001)                 3.095762378441247E+05,      /* I =468 */
(PID.TID 0000.0001)                 3.071419371354089E+05,      /* I =469 */
(PID.TID 0000.0001)                 3.040943772920999E+05,      /* I =470 */
(PID.TID 0000.0001)                 3.004981128361199E+05,      /* I =471 */
(PID.TID 0000.0001)                 2.964357882521720E+05,      /* I =472 */
(PID.TID 0000.0001)                 2.920110325953347E+05,      /* I =473 */
(PID.TID 0000.0001)                 2.873521397259874E+05,      /* I =474 */
(PID.TID 0000.0001)                 2.826160808445005E+05,      /* I =475 */
(PID.TID 0000.0001)                 2.779916120128523E+05,      /* I =476 */
(PID.TID 0000.0001)                 2.736990267615226E+05,      /* I =477 */
(PID.TID 0000.0001)                 2.699827671480681E+05,      /* I =478 */
(PID.TID 0000.0001)                 2.670927303518708E+05,      /* I =479 */
(PID.TID 0000.0001)                 2.652526003845025E+05,      /* I =480 */
(PID.TID 0000.0001)                 2.130490056267208E+05,      /* I =481 */
(PID.TID 0000.0001)                 2.151952039065076E+05,      /* I =482 */
(PID.TID 0000.0001)                 2.210230919927305E+05,      /* I =483 */
(PID.TID 0000.0001)                 2.292001529844996E+05,      /* I =484 */
(PID.TID 0000.0001)                 2.384665985420439E+05,      /* I =485 */
(PID.TID 0000.0001)                 2.479605721914797E+05,      /* I =486 */
(PID.TID 0000.0001)                 2.571738365323154E+05,      /* I =487 */
(PID.TID 0000.0001)                 2.658231272290965E+05,      /* I =488 */
(PID.TID 0000.0001)                 2.737508146608168E+05,      /* I =489 */
(PID.TID 0000.0001)                 2.808657735933971E+05,      /* I =490 */
(PID.TID 0000.0001)                 2.871115158847630E+05,      /* I =491 */
(PID.TID 0000.0001)                 2.924498520269555E+05,      /* I =492 */
(PID.TID 0000.0001)                 2.968528632519549E+05,      /* I =493 */
(PID.TID 0000.0001)                 3.002992005891529E+05,      /* I =494 */
(PID.TID 0000.0001)                 3.027725787805746E+05,      /* I =495 */
(PID.TID 0000.0001)                 3.042613245420325E+05,      /* I =496 */
(PID.TID 0000.0001)                 3.047583645125296E+05,      /* I =497 */
(PID.TID 0000.0001)                 3.042613245420325E+05,      /* I =498 */
(PID.TID 0000.0001)                 3.027725787805746E+05,      /* I =499 */
(PID.TID 0000.0001)                 3.002992005891529E+05,      /* I =500 */
(PID.TID 0000.0001)                 2.968528632519549E+05,      /* I =501 */
(PID.TID 0000.0001)                 2.924498520269555E+05,      /* I =502 */
(PID.TID 0000.0001)                 2.871115158847630E+05,      /* I =503 */
(PID.TID 0000.0001)                 2.808657735933971E+05,      /* I =504 */
(PID.TID 0000.0001)                 2.737508146608168E+05,      /* I =505 */
(PID.TID 0000.0001)                 2.658231272290965E+05,      /* I =506 */
(PID.TID 0000.0001)                 2.571738365323154E+05,      /* I =507 */
(PID.TID 0000.0001)                 2.479605721914797E+05,      /* I =508 */
(PID.TID 0000.0001)                 2.384665985420439E+05,      /* I =509 */
(PID.TID 0000.0001)                 2.292001529844996E+05,      /* I =510 */
(PID.TID 0000.0001)                 2.210230919927305E+05,      /* I =511 */
(PID.TID 0000.0001)                 2.151952039065076E+05,      /* I =512 */
(PID.TID 0000.0001)                 8.015229982413632E+04,      /* I =513 */
(PID.TID 0000.0001)                 1.362652340208229E+05,      /* I =514 */
(PID.TID 0000.0001)                 1.701080315742101E+05,      /* I =515 */
(PID.TID 0000.0001)                 1.942331448101592E+05,      /* I =516 */
(PID.TID 0000.0001)                 2.133486626971531E+05,      /* I =517 */
(PID.TID 0000.0001)                 2.292584591272880E+05,      /* I =518 */
(PID.TID 0000.0001)                 2.428369969078989E+05,      /* I =519 */
(PID.TID 0000.0001)                 2.545652950875683E+05,      /* I =520 */
(PID.TID 0000.0001)                 2.647274964828301E+05,      /* I =521 */
(PID.TID 0000.0001)                 2.734980225206389E+05,      /* I =522 */
(PID.TID 0000.0001)                 2.809856491525217E+05,      /* I =523 */
(PID.TID 0000.0001)                 2.872580915202295E+05,      /* I =524 */
(PID.TID 0000.0001)                 2.923567890694162E+05,      /* I =525 */
(PID.TID 0000.0001)                 2.963063101754721E+05,      /* I =526 */
(PID.TID 0000.0001)                 2.991205495886625E+05,      /* I =527 */
(PID.TID 0000.0001)                 3.008068453676764E+05,      /* I =528 */
(PID.TID 0000.0001)                 3.013686170436881E+05,      /* I =529 */
(PID.TID 0000.0001)                 3.008068453676764E+05,      /* I =530 */
(PID.TID 0000.0001)                 2.991205495886625E+05,      /* I =531 */
(PID.TID 0000.0001)                 2.963063101754721E+05,      /* I =532 */
(PID.TID 0000.0001)                 2.923567890694162E+05,      /* I =533 */
(PID.TID 0000.0001)                 2.872580915202295E+05,      /* I =534 */
(PID.TID 0000.0001)                 2.809856491525217E+05,      /* I =535 */
(PID.TID 0000.0001)                 2.734980225206389E+05,      /* I =536 */
(PID.TID 0000.0001)                 2.647274964828301E+05,      /* I =537 */
(PID.TID 0000.0001)                 2.545652950875683E+05,      /* I =538 */
(PID.TID 0000.0001)                 2.428369969078989E+05,      /* I =539 */
(PID.TID 0000.0001)                 2.292584591272880E+05,      /* I =540 */
(PID.TID 0000.0001)                 2.133486626971531E+05,      /* I =541 */
(PID.TID 0000.0001)                 1.942331448101592E+05,      /* I =542 */
(PID.TID 0000.0001)                 1.701080315742101E+05,      /* I =543 */
(PID.TID 0000.0001)                 1.362652340208229E+05,      /* I =544 */
(PID.TID 0000.0001)                 2.130490056267208E+05,      /* I =545 */
(PID.TID 0000.0001)                 2.151952039065076E+05,      /* I =546 */
(PID.TID 0000.0001)                 2.210230919927305E+05,      /* I =547 */
(PID.TID 0000.0001)                 2.292001529844996E+05,      /* I =548 */
(PID.TID 0000.0001)                 2.384665985420439E+05,      /* I =549 */
(PID.TID 0000.0001)                 2.479605721914797E+05,      /* I =550 */
(PID.TID 0000.0001)                 2.571738365323154E+05,      /* I =551 */
(PID.TID 0000.0001)                 2.658231272290965E+05,      /* I =552 */
(PID.TID 0000.0001)                 2.737508146608168E+05,      /* I =553 */
(PID.TID 0000.0001)                 2.808657735933971E+05,      /* I =554 */
(PID.TID 0000.0001)                 2.871115158847630E+05,      /* I =555 */
(PID.TID 0000.0001)                 2.924498520269555E+05,      /* I =556 */
(PID.TID 0000.0001)                 2.968528632519549E+05,      /* I =557 */
(PID.TID 0000.0001)                 3.002992005891529E+05,      /* I =558 */
(PID.TID 0000.0001)                 3.027725787805746E+05,      /* I =559 */
(PID.TID 0000.0001)                 3.042613245420325E+05,      /* I =560 */
(PID.TID 0000.0001)                 3.047583645125296E+05,      /* I =561 */
(PID.TID 0000.0001)                 3.042613245420325E+05,      /* I =562 */
(PID.TID 0000.0001)                 3.027725787805746E+05,      /* I =563 */
(PID.TID 0000.0001)                 3.002992005891529E+05,      /* I =564 */
(PID.TID 0000.0001)                 2.968528632519549E+05,      /* I =565 */
(PID.TID 0000.0001)                 2.924498520269555E+05,      /* I =566 */
(PID.TID 0000.0001)                 2.871115158847630E+05,      /* I =567 */
(PID.TID 0000.0001)                 2.808657735933971E+05,      /* I =568 */
(PID.TID 0000.0001)                 2.737508146608168E+05,      /* I =569 */
(PID.TID 0000.0001)                 2.658231272290965E+05,      /* I =570 */
(PID.TID 0000.0001)                 2.571738365323154E+05,      /* I =571 */
(PID.TID 0000.0001)                 2.479605721914797E+05,      /* I =572 */
(PID.TID 0000.0001)                 2.384665985420439E+05,      /* I =573 */
(PID.TID 0000.0001)                 2.292001529844996E+05,      /* I =574 */
(PID.TID 0000.0001)                 2.210230919927305E+05,      /* I =575 */
(PID.TID 0000.0001)                 2.151952039065076E+05,      /* I =576 */
(PID.TID 0000.0001)                 2.646201463834826E+05,      /* I =577 */
(PID.TID 0000.0001)                 2.652526003845025E+05,      /* I =578 */
(PID.TID 0000.0001)                 2.670927303518708E+05,      /* I =579 */
(PID.TID 0000.0001)                 2.699827671480681E+05,      /* I =580 */
(PID.TID 0000.0001)                 2.736990267615226E+05,      /* I =581 */
(PID.TID 0000.0001)                 2.779916120128523E+05,      /* I =582 */
(PID.TID 0000.0001)                 2.826160808445005E+05,      /* I =583 */
(PID.TID 0000.0001)                 2.873521397259874E+05,      /* I =584 */
(PID.TID 0000.0001)                 2.920110325953347E+05,      /* I =585 */
(PID.TID 0000.0001)                 2.964357882521720E+05,      /* I =586 */
(PID.TID 0000.0001)                 3.004981128361199E+05,      /* I =587 */
(PID.TID 0000.0001)                 3.040943772920999E+05,      /* I =588 */
(PID.TID 0000.0001)                 3.071419371354089E+05,      /* I =589 */
(PID.TID 0000.0001)                 3.095762378441247E+05,      /* I =590 */
(PID.TID 0000.0001)                 3.113487493857945E+05,      /* I =591 */
(PID.TID 0000.0001)                 3.124256032686725E+05,      /* I =592 */
(PID.TID 0000.0001)                 3.127867656729039E+05,      /* I =593 */
(PID.TID 0000.0001)                 3.124256032686725E+05,      /* I =594 */
(PID.TID 0000.0001)                 3.113487493857945E+05,      /* I =595 */
(PID.TID 0000.0001)                 3.095762378441247E+05,      /* I =596 */
(PID.TID 0000.0001)                 3.071419371354089E+05,      /* I =597 */
(PID.TID 0000.0001)                 3.040943772920999E+05,      /* I =598 */
(PID.TID 0000.0001)                 3.004981128361199E+05,      /* I =599 */
(PID.TID 0000.0001)                 2.964357882521720E+05,      /* I =600 */
(PID.TID 0000.0001)                 2.920110325953347E+05,      /* I =601 */
(PID.TID 0000.0001)                 2.873521397259874E+05,      /* I =602 */
(PID.TID 0000.0001)                 2.826160808445005E+05,      /* I =603 */
(PID.TID 0000.0001)                 2.779916120128523E+05,      /* I =604 */
(PID.TID 0000.0001)                 2.736990267615226E+05,      /* I =605 */
(PID.TID 0000.0001)                 2.699827671480681E+05,      /* I =606 */
(PID.TID 0000.0001)                 2.670927303518708E+05,      /* I =607 */
(PID.TID 0000.0001)                 2.652526003845025E+05,      /* I =608 */
(PID.TID 0000.0001)                 2.922844849381675E+05,      /* I =609 */
(PID.TID 0000.0001)                 2.925855316768774E+05,      /* I =610 */
(PID.TID 0000.0001)                 2.934729433396924E+05,      /* I =611 */
(PID.TID 0000.0001)                 2.949010866948440E+05,      /* I =612 */
(PID.TID 0000.0001)                 2.967987247986380E+05,      /* I =613 */
(PID.TID 0000.0001)                 2.990751451996336E+05,      /* I =614 */
(PID.TID 0000.0001)                 3.016269818888814E+05,      /* I =615 */
(PID.TID 0000.0001)                 3.043447463267440E+05,      /* I =616 */
(PID.TID 0000.0001)                 3.071184425324030E+05,      /* I =617 */
(PID.TID 0000.0001)                 3.098420252519152E+05,      /* I =618 */
(PID.TID 0000.0001)                 3.124167445866441E+05,      /* I =619 */
(PID.TID 0000.0001)                 3.147535691213495E+05,      /* I =620 */
(PID.TID 0000.0001)                 3.167749168862456E+05,      /* I =621 */
(PID.TID 0000.0001)                 3.184158948257520E+05,      /* I =622 */
(PID.TID 0000.0001)                 3.196251931162167E+05,      /* I =623 */
(PID.TID 0000.0001)                 3.203657264011034E+05,      /* I =624 */
(PID.TID 0000.0001)                 3.206150718566154E+05,      /* I =625 */
(PID.TID 0000.0001)                 3.203657264011034E+05,      /* I =626 */
(PID.TID 0000.0001)                 3.196251931162167E+05,      /* I =627 */
(PID.TID 0000.0001)                 3.184158948257520E+05,      /* I =628 */
(PID.TID 0000.0001)                 3.167749168862456E+05,      /* I =629 */
(PID.TID 0000.0001)                 3.147535691213495E+05,      /* I =630 */
(PID.TID 0000.0001)                 3.124167445866441E+05,      /* I =631 */
(PID.TID 0000.0001)                 3.098420252519152E+05,      /* I =632 */
(PID.TID 0000.0001)                 3.071184425324030E+05,      /* I =633 */
(PID.TID 0000.0001)                 3.043447463267440E+05,      /* I =634 */
(PID.TID 0000.0001)                 3.016269818888814E+05,      /* I =635 */
(PID.TID 0000.0001)                 2.990751451996336E+05,      /* I =636 */
(PID.TID 0000.0001)                 2.967987247986380E+05,      /* I =637 */
(PID.TID 0000.0001)                 2.949010866948440E+05,      /* I =638 */
(PID.TID 0000.0001)                 2.934729433396924E+05,      /* I =639 */
(PID.TID 0000.0001)                 2.925855316768774E+05,      /* I =640 */
(PID.TID 0000.0001)                 3.013031486919771E+05,      /* I =641 */
(PID.TID 0000.0001)                 3.015274890091515E+05,      /* I =642 */
(PID.TID 0000.0001)                 3.021908563699420E+05,      /* I =643 */
(PID.TID 0000.0001)                 3.032648502024415E+05,      /* I =644 */
(PID.TID 0000.0001)                 3.047039405458409E+05,      /* I =645 */
(PID.TID 0000.0001)                 3.064479682824742E+05,      /* I =646 */
(PID.TID 0000.0001)                 3.084252792046263E+05,      /* I =647 */
(PID.TID 0000.0001)                 3.105562173056038E+05,      /* I =648 */
(PID.TID 0000.0001)                 3.127567211383312E+05,      /* I =649 */
(PID.TID 0000.0001)                 3.149418154158797E+05,      /* I =650 */
(PID.TID 0000.0001)                 3.170288504389129E+05,      /* I =651 */
(PID.TID 0000.0001)                 3.189403993331409E+05,      /* I =652 */
(PID.TID 0000.0001)                 3.206067683235888E+05,      /* I =653 */
(PID.TID 0000.0001)                 3.219681053727232E+05,      /* I =654 */
(PID.TID 0000.0001)                 3.229761089393431E+05,      /* I =655 */
(PID.TID 0000.0001)                 3.235953450756532E+05,      /* I =656 */
(PID.TID 0000.0001)                 3.238041816275029E+05,      /* I =657 */
(PID.TID 0000.0001)                 3.235953450756532E+05,      /* I =658 */
(PID.TID 0000.0001)                 3.229761089393431E+05,      /* I =659 */
(PID.TID 0000.0001)                 3.219681053727232E+05,      /* I =660 */
(PID.TID 0000.0001)                 3.206067683235888E+05,      /* I =661 */
(PID.TID 0000.0001)                 3.189403993331409E+05,      /* I =662 */
(PID.TID 0000.0001)                 3.170288504389129E+05,      /* I =663 */
(PID.TID 0000.0001)                 3.149418154158797E+05,      /* I =664 */
(PID.TID 0000.0001)                 3.127567211383312E+05,      /* I =665 */
(PID.TID 0000.0001)                 3.105562173056038E+05,      /* I =666 */
(PID.TID 0000.0001)                 3.084252792046263E+05,      /* I =667 */
(PID.TID 0000.0001)                 3.064479682824742E+05,      /* I =668 */
(PID.TID 0000.0001)                 3.047039405458409E+05,      /* I =669 */
(PID.TID 0000.0001)                 3.032648502024415E+05,      /* I =670 */
(PID.TID 0000.0001)                 3.021908563699420E+05,      /* I =671 */
(PID.TID 0000.0001)                 3.015274890091515E+05,      /* I =672 */
(PID.TID 0000.0001)                 2.922844849381675E+05,      /* I =673 */
(PID.TID 0000.0001)                 2.925855316768774E+05,      /* I =674 */
(PID.TID 0000.0001)                 2.934729433396924E+05,      /* I =675 */
(PID.TID 0000.0001)                 2.949010866948440E+05,      /* I =676 */
(PID.TID 0000.0001)                 2.967987247986380E+05,      /* I =677 */
(PID.TID 0000.0001)                 2.990751451996336E+05,      /* I =678 */
(PID.TID 0000.0001)                 3.016269818888814E+05,      /* I =679 */
(PID.TID 0000.0001)                 3.043447463267440E+05,      /* I =680 */
(PID.TID 0000.0001)                 3.071184425324030E+05,      /* I =681 */
(PID.TID 0000.0001)                 3.098420252519152E+05,      /* I =682 */
(PID.TID 0000.0001)                 3.124167445866441E+05,      /* I =683 */
(PID.TID 0000.0001)                 3.147535691213495E+05,      /* I =684 */
(PID.TID 0000.0001)                 3.167749168862456E+05,      /* I =685 */
(PID.TID 0000.0001)                 3.184158948257520E+05,      /* I =686 */
(PID.TID 0000.0001)                 3.196251931162167E+05,      /* I =687 */
(PID.TID 0000.0001)                 3.203657264011034E+05,      /* I =688 */
(PID.TID 0000.0001)                 3.206150718566154E+05,      /* I =689 */
(PID.TID 0000.0001)                 3.203657264011034E+05,      /* I =690 */
(PID.TID 0000.0001)                 3.196251931162167E+05,      /* I =691 */
(PID.TID 0000.0001)                 3.184158948257520E+05,      /* I =692 */
(PID.TID 0000.0001)                 3.167749168862456E+05,      /* I =693 */
(PID.TID 0000.0001)                 3.147535691213495E+05,      /* I =694 */
(PID.TID 0000.0001)                 3.124167445866441E+05,      /* I =695 */
(PID.TID 0000.0001)                 3.098420252519152E+05,      /* I =696 */
(PID.TID 0000.0001)                 3.071184425324030E+05,      /* I =697 */
(PID.TID 0000.0001)                 3.043447463267440E+05,      /* I =698 */
(PID.TID 0000.0001)                 3.016269818888814E+05,      /* I =699 */
(PID.TID 0000.0001)                 2.990751451996336E+05,      /* I =700 */
(PID.TID 0000.0001)                 2.967987247986380E+05,      /* I =701 */
(PID.TID 0000.0001)                 2.949010866948440E+05,      /* I =702 */
(PID.TID 0000.0001)                 2.934729433396924E+05,      /* I =703 */
(PID.TID 0000.0001)                 2.925855316768774E+05,      /* I =704 */
(PID.TID 0000.0001)                 2.646201463834826E+05,      /* I =705 */
(PID.TID 0000.0001)                 2.652526003845025E+05,      /* I =706 */
(PID.TID 0000.0001)                 2.670927303518708E+05,      /* I =707 */
(PID.TID 0000.0001)                 2.699827671480681E+05,      /* I =708 */
(PID.TID 0000.0001)                 2.736990267615226E+05,      /* I =709 */
(PID.TID 0000.0001)                 2.779916120128523E+05,      /* I =710 */
(PID.TID 0000.0001)                 2.826160808445005E+05,      /* I =711 */
(PID.TID 0000.0001)                 2.873521397259874E+05,      /* I =712 */
(PID.TID 0000.0001)                 2.920110325953347E+05,      /* I =713 */
(PID.TID 0000.0001)                 2.964357882521720E+05,      /* I =714 */
(PID.TID 0000.0001)                 3.004981128361199E+05,      /* I =715 */
(PID.TID 0000.0001)                 3.040943772920999E+05,      /* I =716 */
(PID.TID 0000.0001)                 3.071419371354089E+05,      /* I =717 */
(PID.TID 0000.0001)                 3.095762378441247E+05,      /* I =718 */
(PID.TID 0000.0001)                 3.113487493857945E+05,      /* I =719 */
(PID.TID 0000.0001)                 3.124256032686725E+05,      /* I =720 */
(PID.TID 0000.0001)                 3.127867656729039E+05,      /* I =721 */
(PID.TID 0000.0001)                 3.124256032686725E+05,      /* I =722 */
(PID.TID 0000.0001)                 3.113487493857945E+05,      /* I =723 */
(PID.TID 0000.0001)                 3.095762378441247E+05,      /* I =724 */
(PID.TID 0000.0001)                 3.071419371354089E+05,      /* I =725 */
(PID.TID 0000.0001)                 3.040943772920999E+05,      /* I =726 */
(PID.TID 0000.0001)                 3.004981128361199E+05,      /* I =727 */
(PID.TID 0000.0001)                 2.964357882521720E+05,      /* I =728 */
(PID.TID 0000.0001)                 2.920110325953347E+05,      /* I =729 */
(PID.TID 0000.0001)                 2.873521397259874E+05,      /* I =730 */
(PID.TID 0000.0001)                 2.826160808445005E+05,      /* I =731 */
(PID.TID 0000.0001)                 2.779916120128523E+05,      /* I =732 */
(PID.TID 0000.0001)                 2.736990267615226E+05,      /* I =733 */
(PID.TID 0000.0001)                 2.699827671480681E+05,      /* I =734 */
(PID.TID 0000.0001)                 2.670927303518708E+05,      /* I =735 */
(PID.TID 0000.0001)                 2.652526003845025E+05,      /* I =736 */
(PID.TID 0000.0001)                 2.130490056267208E+05,      /* I =737 */
(PID.TID 0000.0001)                 2.151952039065076E+05,      /* I =738 */
(PID.TID 0000.0001)                 2.210230919927305E+05,      /* I =739 */
(PID.TID 0000.0001)                 2.292001529844996E+05,      /* I =740 */
(PID.TID 0000.0001)                 2.384665985420439E+05,      /* I =741 */
(PID.TID 0000.0001)                 2.479605721914797E+05,      /* I =742 */
(PID.TID 0000.0001)                 2.571738365323154E+05,      /* I =743 */
(PID.TID 0000.0001)                 2.658231272290965E+05,      /* I =744 */
(PID.TID 0000.0001)                 2.737508146608168E+05,      /* I =745 */
(PID.TID 0000.0001)                 2.808657735933971E+05,      /* I =746 */
(PID.TID 0000.0001)                 2.871115158847630E+05,      /* I =747 */
(PID.TID 0000.0001)                 2.924498520269555E+05,      /* I =748 */
(PID.TID 0000.0001)                 2.968528632519549E+05,      /* I =749 */
(PID.TID 0000.0001)                 3.002992005891529E+05,      /* I =750 */
(PID.TID 0000.0001)                 3.027725787805746E+05,      /* I =751 */
(PID.TID 0000.0001)                 3.042613245420325E+05,      /* I =752 */
(PID.TID 0000.0001)                 3.047583645125296E+05,      /* I =753 */
(PID.TID 0000.0001)                 3.042613245420325E+05,      /* I =754 */
(PID.TID 0000.0001)                 3.027725787805746E+05,      /* I =755 */
(PID.TID 0000.0001)                 3.002992005891529E+05,      /* I =756 */
(PID.TID 0000.0001)                 2.968528632519549E+05,      /* I =757 */
(PID.TID 0000.0001)                 2.924498520269555E+05,      /* I =758 */
(PID.TID 0000.0001)                 2.871115158847630E+05,      /* I =759 */
(PID.TID 0000.0001)                 2.808657735933971E+05,      /* I =760 */
(PID.TID 0000.0001)                 2.737508146608168E+05,      /* I =761 */
(PID.TID 0000.0001)                 2.658231272290965E+05,      /* I =762 */
(PID.TID 0000.0001)                 2.571738365323154E+05,      /* I =763 */
(PID.TID 0000.0001)                 2.479605721914797E+05,      /* I =764 */
(PID.TID 0000.0001)                 2.384665985420439E+05,      /* I =765 */
(PID.TID 0000.0001)                 2.292001529844996E+05,      /* I =766 */
(PID.TID 0000.0001)                 2.210230919927305E+05,      /* I =767 */
(PID.TID 0000.0001)                 2.151952039065076E+05,      /* I =768 */
(PID.TID 0000.0001)                 8.015229982413632E+04,      /* I =769 */
(PID.TID 0000.0001)                 1.362652340208229E+05,      /* I =770 */
(PID.TID 0000.0001)                 1.701080315742101E+05,      /* I =771 */
(PID.TID 0000.0001)                 1.942331448101592E+05,      /* I =772 */
(PID.TID 0000.0001)                 2.133486626971531E+05,      /* I =773 */
(PID.TID 0000.0001)                 2.292584591272880E+05,      /* I =774 */
(PID.TID 0000.0001)                 2.428369969078989E+05,      /* I =775 */
(PID.TID 0000.0001)                 2.545652950875683E+05,      /* I =776 */
(PID.TID 0000.0001)                 2.647274964828301E+05,      /* I =777 */
(PID.TID 0000.0001)                 2.734980225206389E+05,      /* I =778 */
(PID.TID 0000.0001)                 2.809856491525217E+05,      /* I =779 */
(PID.TID 0000.0001)                 2.872580915202295E+05,      /* I =780 */
(PID.TID 0000.0001)                 2.923567890694162E+05,      /* I =781 */
(PID.TID 0000.0001)                 2.963063101754721E+05,      /* I =782 */
(PID.TID 0000.0001)                 2.991205495886625E+05,      /* I =783 */
(PID.TID 0000.0001)                 3.008068453676764E+05,      /* I =784 */
(PID.TID 0000.0001)                 3.013686170436881E+05,      /* I =785 */
(PID.TID 0000.0001)                 3.008068453676764E+05,      /* I =786 */
(PID.TID 0000.0001)                 2.991205495886625E+05,      /* I =787 */
(PID.TID 0000.0001)                 2.963063101754721E+05,      /* I =788 */
(PID.TID 0000.0001)                 2.923567890694162E+05,      /* I =789 */
(PID.TID 0000.0001)                 2.872580915202295E+05,      /* I =790 */
(PID.TID 0000.0001)                 2.809856491525217E+05,      /* I =791 */
(PID.TID 0000.0001)                 2.734980225206389E+05,      /* I =792 */
(PID.TID 0000.0001)                 2.647274964828301E+05,      /* I =793 */
(PID.TID 0000.0001)                 2.545652950875683E+05,      /* I =794 */
(PID.TID 0000.0001)                 2.428369969078989E+05,      /* I =795 */
(PID.TID 0000.0001)                 2.292584591272880E+05,      /* I =796 */
(PID.TID 0000.0001)                 2.133486626971531E+05,      /* I =797 */
(PID.TID 0000.0001)                 1.942331448101592E+05,      /* I =798 */
(PID.TID 0000.0001)                 1.701080315742101E+05,      /* I =799 */
(PID.TID 0000.0001)                 1.362652340208229E+05,      /* I =800 */
(PID.TID 0000.0001)                 2.130490056267208E+05,      /* I =801 */
(PID.TID 0000.0001)                 2.151952039065076E+05,      /* I =802 */
(PID.TID 0000.0001)                 2.210230919927305E+05,      /* I =803 */
(PID.TID 0000.0001)                 2.292001529844996E+05,      /* I =804 */
(PID.TID 0000.0001)                 2.384665985420439E+05,      /* I =805 */
(PID.TID 0000.0001)                 2.479605721914797E+05,      /* I =806 */
(PID.TID 0000.0001)                 2.571738365323154E+05,      /* I =807 */
(PID.TID 0000.0001)                 2.658231272290965E+05,      /* I =808 */
(PID.TID 0000.0001)                 2.737508146608168E+05,      /* I =809 */
(PID.TID 0000.0001)                 2.808657735933971E+05,      /* I =810 */
(PID.TID 0000.0001)                 2.871115158847630E+05,      /* I =811 */
(PID.TID 0000.0001)                 2.924498520269555E+05,      /* I =812 */
(PID.TID 0000.0001)                 2.968528632519549E+05,      /* I =813 */
(PID.TID 0000.0001)                 3.002992005891529E+05,      /* I =814 */
(PID.TID 0000.0001)                 3.027725787805746E+05,      /* I =815 */
(PID.TID 0000.0001)                 3.042613245420325E+05,      /* I =816 */
(PID.TID 0000.0001)                 3.047583645125296E+05,      /* I =817 */
(PID.TID 0000.0001)                 3.042613245420325E+05,      /* I =818 */
(PID.TID 0000.0001)                 3.027725787805746E+05,      /* I =819 */
(PID.TID 0000.0001)                 3.002992005891529E+05,      /* I =820 */
(PID.TID 0000.0001)                 2.968528632519549E+05,      /* I =821 */
(PID.TID 0000.0001)                 2.924498520269555E+05,      /* I =822 */
(PID.TID 0000.0001)                 2.871115158847630E+05,      /* I =823 */
(PID.TID 0000.0001)                 2.808657735933971E+05,      /* I =824 */
(PID.TID 0000.0001)                 2.737508146608168E+05,      /* I =825 */
(PID.TID 0000.0001)                 2.658231272290965E+05,      /* I =826 */
(PID.TID 0000.0001)                 2.571738365323154E+05,      /* I =827 */
(PID.TID 0000.0001)                 2.479605721914797E+05,      /* I =828 */
(PID.TID 0000.0001)                 2.384665985420439E+05,      /* I =829 */
(PID.TID 0000.0001)                 2.292001529844996E+05,      /* I =830 */
(PID.TID 0000.0001)                 2.210230919927305E+05,      /* I =831 */
(PID.TID 0000.0001)                 2.151952039065076E+05,      /* I =832 */
(PID.TID 0000.0001)                 2.646201463834826E+05,      /* I =833 */
(PID.TID 0000.0001)                 2.652526003845025E+05,      /* I =834 */
(PID.TID 0000.0001)                 2.670927303518708E+05,      /* I =835 */
(PID.TID 0000.0001)                 2.699827671480681E+05,      /* I =836 */
(PID.TID 0000.0001)                 2.736990267615226E+05,      /* I =837 */
(PID.TID 0000.0001)                 2.779916120128523E+05,      /* I =838 */
(PID.TID 0000.0001)                 2.826160808445005E+05,      /* I =839 */
(PID.TID 0000.0001)                 2.873521397259874E+05,      /* I =840 */
(PID.TID 0000.0001)                 2.920110325953347E+05,      /* I =841 */
(PID.TID 0000.0001)                 2.964357882521720E+05,      /* I =842 */
(PID.TID 0000.0001)                 3.004981128361199E+05,      /* I =843 */
(PID.TID 0000.0001)                 3.040943772920999E+05,      /* I =844 */
(PID.TID 0000.0001)                 3.071419371354089E+05,      /* I =845 */
(PID.TID 0000.0001)                 3.095762378441247E+05,      /* I =846 */
(PID.TID 0000.0001)                 3.113487493857945E+05,      /* I =847 */
(PID.TID 0000.0001)                 3.124256032686725E+05,      /* I =848 */
(PID.TID 0000.0001)                 3.127867656729039E+05,      /* I =849 */
(PID.TID 0000.0001)                 3.124256032686725E+05,      /* I =850 */
(PID.TID 0000.0001)                 3.113487493857945E+05,      /* I =851 */
(PID.TID 0000.0001)                 3.095762378441247E+05,      /* I =852 */
(PID.TID 0000.0001)                 3.071419371354089E+05,      /* I =853 */
(PID.TID 0000.0001)                 3.040943772920999E+05,      /* I =854 */
(PID.TID 0000.0001)                 3.004981128361199E+05,      /* I =855 */
(PID.TID 0000.0001)                 2.964357882521720E+05,      /* I =856 */
(PID.TID 0000.0001)                 2.920110325953347E+05,      /* I =857 */
(PID.TID 0000.0001)                 2.873521397259874E+05,      /* I =858 */
(PID.TID 0000.0001)                 2.826160808445005E+05,      /* I =859 */
(PID.TID 0000.0001)                 2.779916120128523E+05,      /* I =860 */
(PID.TID 0000.0001)                 2.736990267615226E+05,      /* I =861 */
(PID.TID 0000.0001)                 2.699827671480681E+05,      /* I =862 */
(PID.TID 0000.0001)                 2.670927303518708E+05,      /* I =863 */
(PID.TID 0000.0001)                 2.652526003845025E+05,      /* I =864 */
(PID.TID 0000.0001)                 2.922844849381675E+05,      /* I =865 */
(PID.TID 0000.0001)                 2.925855316768774E+05,      /* I =866 */
(PID.TID 0000.0001)                 2.934729433396924E+05,      /* I =867 */
(PID.TID 0000.0001)                 2.949010866948440E+05,      /* I =868 */
(PID.TID 0000.0001)                 2.967987247986380E+05,      /* I =869 */
(PID.TID 0000.0001)                 2.990751451996336E+05,      /* I =870 */
(PID.TID 0000.0001)                 3.016269818888814E+05,      /* I =871 */
(PID.TID 0000.0001)                 3.043447463267440E+05,      /* I =872 */
(PID.TID 0000.0001)                 3.071184425324030E+05,      /* I =873 */
(PID.TID 0000.0001)                 3.098420252519152E+05,      /* I =874 */
(PID.TID 0000.0001)                 3.124167445866441E+05,      /* I =875 */
(PID.TID 0000.0001)                 3.147535691213495E+05,      /* I =876 */
(PID.TID 0000.0001)                 3.167749168862456E+05,      /* I =877 */
(PID.TID 0000.0001)                 3.184158948257520E+05,      /* I =878 */
(PID.TID 0000.0001)                 3.196251931162167E+05,      /* I =879 */
(PID.TID 0000.0001)                 3.203657264011034E+05,      /* I =880 */
(PID.TID 0000.0001)                 3.206150718566154E+05,      /* I =881 */
(PID.TID 0000.0001)                 3.203657264011034E+05,      /* I =882 */
(PID.TID 0000.0001)                 3.196251931162167E+05,      /* I =883 */
(PID.TID 0000.0001)                 3.184158948257520E+05,      /* I =884 */
(PID.TID 0000.0001)                 3.167749168862456E+05,      /* I =885 */
(PID.TID 0000.0001)                 3.147535691213495E+05,      /* I =886 */
(PID.TID 0000.0001)                 3.124167445866441E+05,      /* I =887 */
(PID.TID 0000.0001)                 3.098420252519152E+05,      /* I =888 */
(PID.TID 0000.0001)                 3.071184425324030E+05,      /* I =889 */
(PID.TID 0000.0001)                 3.043447463267440E+05,      /* I =890 */
(PID.TID 0000.0001)                 3.016269818888814E+05,      /* I =891 */
(PID.TID 0000.0001)                 2.990751451996336E+05,      /* I =892 */
(PID.TID 0000.0001)                 2.967987247986380E+05,      /* I =893 */
(PID.TID 0000.0001)                 2.949010866948440E+05,      /* I =894 */
(PID.TID 0000.0001)                 2.934729433396924E+05,      /* I =895 */
(PID.TID 0000.0001)                 2.925855316768774E+05,      /* I =896 */
(PID.TID 0000.0001)                 3.013031486919771E+05,      /* I =897 */
(PID.TID 0000.0001)                 3.015274890091515E+05,      /* I =898 */
(PID.TID 0000.0001)                 3.021908563699420E+05,      /* I =899 */
(PID.TID 0000.0001)                 3.032648502024415E+05,      /* I =900 */
(PID.TID 0000.0001)                 3.047039405458409E+05,      /* I =901 */
(PID.TID 0000.0001)                 3.064479682824742E+05,      /* I =902 */
(PID.TID 0000.0001)                 3.084252792046263E+05,      /* I =903 */
(PID.TID 0000.0001)                 3.105562173056038E+05,      /* I =904 */
(PID.TID 0000.0001)                 3.127567211383312E+05,      /* I =905 */
(PID.TID 0000.0001)                 3.149418154158797E+05,      /* I =906 */
(PID.TID 0000.0001)                 3.170288504389129E+05,      /* I =907 */
(PID.TID 0000.0001)                 3.189403993331409E+05,      /* I =908 */
(PID.TID 0000.0001)                 3.206067683235888E+05,      /* I =909 */
(PID.TID 0000.0001)                 3.219681053727232E+05,      /* I =910 */
(PID.TID 0000.0001)                 3.229761089393431E+05,      /* I =911 */
(PID.TID 0000.0001)                 3.235953450756532E+05,      /* I =912 */
(PID.TID 0000.0001)                 3.238041816275029E+05,      /* I =913 */
(PID.TID 0000.0001)                 3.235953450756532E+05,      /* I =914 */
(PID.TID 0000.0001)                 3.229761089393431E+05,      /* I =915 */
(PID.TID 0000.0001)                 3.219681053727232E+05,      /* I =916 */
(PID.TID 0000.0001)                 3.206067683235888E+05,      /* I =917 */
(PID.TID 0000.0001)                 3.189403993331409E+05,      /* I =918 */
(PID.TID 0000.0001)                 3.170288504389129E+05,      /* I =919 */
(PID.TID 0000.0001)                 3.149418154158797E+05,      /* I =920 */
(PID.TID 0000.0001)                 3.127567211383312E+05,      /* I =921 */
(PID.TID 0000.0001)                 3.105562173056038E+05,      /* I =922 */
(PID.TID 0000.0001)                 3.084252792046263E+05,      /* I =923 */
(PID.TID 0000.0001)                 3.064479682824742E+05,      /* I =924 */
(PID.TID 0000.0001)                 3.047039405458409E+05,      /* I =925 */
(PID.TID 0000.0001)                 3.032648502024415E+05,      /* I =926 */
(PID.TID 0000.0001)                 3.021908563699420E+05,      /* I =927 */
(PID.TID 0000.0001)                 3.015274890091515E+05,      /* I =928 */
(PID.TID 0000.0001)                 2.922844849381675E+05,      /* I =929 */
(PID.TID 0000.0001)                 2.925855316768774E+05,      /* I =930 */
(PID.TID 0000.0001)                 2.934729433396924E+05,      /* I =931 */
(PID.TID 0000.0001)                 2.949010866948440E+05,      /* I =932 */
(PID.TID 0000.0001)                 2.967987247986380E+05,      /* I =933 */
(PID.TID 0000.0001)                 2.990751451996336E+05,      /* I =934 */
(PID.TID 0000.0001)                 3.016269818888814E+05,      /* I =935 */
(PID.TID 0000.0001)                 3.043447463267440E+05,      /* I =936 */
(PID.TID 0000.0001)                 3.071184425324030E+05,      /* I =937 */
(PID.TID 0000.0001)                 3.098420252519152E+05,      /* I =938 */
(PID.TID 0000.0001)                 3.124167445866441E+05,      /* I =939 */
(PID.TID 0000.0001)                 3.147535691213495E+05,      /* I =940 */
(PID.TID 0000.0001)                 3.167749168862456E+05,      /* I =941 */
(PID.TID 0000.0001)                 3.184158948257520E+05,      /* I =942 */
(PID.TID 0000.0001)                 3.196251931162167E+05,      /* I =943 */
(PID.TID 0000.0001)                 3.203657264011034E+05,      /* I =944 */
(PID.TID 0000.0001)                 3.206150718566154E+05,      /* I =945 */
(PID.TID 0000.0001)                 3.203657264011034E+05,      /* I =946 */
(PID.TID 0000.0001)                 3.196251931162167E+05,      /* I =947 */
(PID.TID 0000.0001)                 3.184158948257520E+05,      /* I =948 */
(PID.TID 0000.0001)                 3.167749168862456E+05,      /* I =949 */
(PID.TID 0000.0001)                 3.147535691213495E+05,      /* I =950 */
(PID.TID 0000.0001)                 3.124167445866441E+05,      /* I =951 */
(PID.TID 0000.0001)                 3.098420252519152E+05,      /* I =952 */
(PID.TID 0000.0001)                 3.071184425324030E+05,      /* I =953 */
(PID.TID 0000.0001)                 3.043447463267440E+05,      /* I =954 */
(PID.TID 0000.0001)                 3.016269818888814E+05,      /* I =955 */
(PID.TID 0000.0001)                 2.990751451996336E+05,      /* I =956 */
(PID.TID 0000.0001)                 2.967987247986380E+05,      /* I =957 */
(PID.TID 0000.0001)                 2.949010866948440E+05,      /* I =958 */
(PID.TID 0000.0001)                 2.934729433396924E+05,      /* I =959 */
(PID.TID 0000.0001)                 2.925855316768774E+05,      /* I =960 */
(PID.TID 0000.0001)                 2.646201463834826E+05,      /* I =961 */
(PID.TID 0000.0001)                 2.652526003845025E+05,      /* I =962 */
(PID.TID 0000.0001)                 2.670927303518708E+05,      /* I =963 */
(PID.TID 0000.0001)                 2.699827671480681E+05,      /* I =964 */
(PID.TID 0000.0001)                 2.736990267615226E+05,      /* I =965 */
(PID.TID 0000.0001)                 2.779916120128523E+05,      /* I =966 */
(PID.TID 0000.0001)                 2.826160808445005E+05,      /* I =967 */
(PID.TID 0000.0001)                 2.873521397259874E+05,      /* I =968 */
(PID.TID 0000.0001)                 2.920110325953347E+05,      /* I =969 */
(PID.TID 0000.0001)                 2.964357882521720E+05,      /* I =970 */
(PID.TID 0000.0001)                 3.004981128361199E+05,      /* I =971 */
(PID.TID 0000.0001)                 3.040943772920999E+05,      /* I =972 */
(PID.TID 0000.0001)                 3.071419371354089E+05,      /* I =973 */
(PID.TID 0000.0001)                 3.095762378441247E+05,      /* I =974 */
(PID.TID 0000.0001)                 3.113487493857945E+05,      /* I =975 */
(PID.TID 0000.0001)                 3.124256032686725E+05,      /* I =976 */
(PID.TID 0000.0001)                 3.127867656729039E+05,      /* I =977 */
(PID.TID 0000.0001)                 3.124256032686725E+05,      /* I =978 */
(PID.TID 0000.0001)                 3.113487493857945E+05,      /* I =979 */
(PID.TID 0000.0001)                 3.095762378441247E+05,      /* I =980 */
(PID.TID 0000.0001)                 3.071419371354089E+05,      /* I =981 */
(PID.TID 0000.0001)                 3.040943772920999E+05,      /* I =982 */
(PID.TID 0000.0001)                 3.004981128361199E+05,      /* I =983 */
(PID.TID 0000.0001)                 2.964357882521720E+05,      /* I =984 */
(PID.TID 0000.0001)                 2.920110325953347E+05,      /* I =985 */
(PID.TID 0000.0001)                 2.873521397259874E+05,      /* I =986 */
(PID.TID 0000.0001)                 2.826160808445005E+05,      /* I =987 */
(PID.TID 0000.0001)                 2.779916120128523E+05,      /* I =988 */
(PID.TID 0000.0001)                 2.736990267615226E+05,      /* I =989 */
(PID.TID 0000.0001)                 2.699827671480681E+05,      /* I =990 */
(PID.TID 0000.0001)                 2.670927303518708E+05,      /* I =991 */
(PID.TID 0000.0001)                 2.652526003845025E+05,      /* I =992 */
(PID.TID 0000.0001)                 2.130490056267208E+05,      /* I =993 */
(PID.TID 0000.0001)                 2.151952039065076E+05,      /* I =994 */
(PID.TID 0000.0001)                 2.210230919927305E+05,      /* I =995 */
(PID.TID 0000.0001)                 2.292001529844996E+05,      /* I =996 */
(PID.TID 0000.0001)                 2.384665985420439E+05,      /* I =997 */
(PID.TID 0000.0001)                 2.479605721914797E+05,      /* I =998 */
(PID.TID 0000.0001)                 2.571738365323154E+05,      /* I =999 */
(PID.TID 0000.0001)                 2.658231272290965E+05,      /* I =*** */
(PID.TID 0000.0001)                 2.737508146608168E+05,      /* I =*** */
(PID.TID 0000.0001)                 2.808657735933971E+05,      /* I =*** */
(PID.TID 0000.0001)                 2.871115158847630E+05,      /* I =*** */
(PID.TID 0000.0001)                 2.924498520269555E+05,      /* I =*** */
(PID.TID 0000.0001)                 2.968528632519549E+05,      /* I =*** */
(PID.TID 0000.0001)                 3.002992005891529E+05,      /* I =*** */
(PID.TID 0000.0001)                 3.027725787805746E+05,      /* I =*** */
(PID.TID 0000.0001)                 3.042613245420325E+05,      /* I =*** */
(PID.TID 0000.0001)                 3.047583645125296E+05,      /* I =*** */
(PID.TID 0000.0001)                 3.042613245420325E+05,      /* I =*** */
(PID.TID 0000.0001)                 3.027725787805746E+05,      /* I =*** */
(PID.TID 0000.0001)                 3.002992005891529E+05,      /* I =*** */
(PID.TID 0000.0001)                 2.968528632519549E+05,      /* I =*** */
(PID.TID 0000.0001)                 2.924498520269555E+05,      /* I =*** */
(PID.TID 0000.0001)                 2.871115158847630E+05,      /* I =*** */
(PID.TID 0000.0001)                 2.808657735933971E+05,      /* I =*** */
(PID.TID 0000.0001)                 2.737508146608168E+05,      /* I =*** */
(PID.TID 0000.0001)                 2.658231272290965E+05,      /* I =*** */
(PID.TID 0000.0001)                 2.571738365323154E+05,      /* I =*** */
(PID.TID 0000.0001)                 2.479605721914797E+05,      /* I =*** */
(PID.TID 0000.0001)                 2.384665985420439E+05,      /* I =*** */
(PID.TID 0000.0001)                 2.292001529844996E+05,      /* I =*** */
(PID.TID 0000.0001)                 2.210230919927305E+05,      /* I =*** */
(PID.TID 0000.0001)                 2.151952039065076E+05,      /* I =*** */
(PID.TID 0000.0001)                 8.015229982413632E+04,      /* I =*** */
(PID.TID 0000.0001)                 1.362652340208229E+05,      /* I =*** */
(PID.TID 0000.0001)                 1.701080315742101E+05,      /* I =*** */
(PID.TID 0000.0001)                 1.942331448101592E+05,      /* I =*** */
(PID.TID 0000.0001)                 2.133486626971531E+05,      /* I =*** */
(PID.TID 0000.0001)                 2.292584591272880E+05,      /* I =*** */
(PID.TID 0000.0001)                 2.428369969078989E+05,      /* I =*** */
(PID.TID 0000.0001)                 2.545652950875683E+05,      /* I =*** */
(PID.TID 0000.0001)                 2.647274964828301E+05,      /* I =*** */
(PID.TID 0000.0001)                 2.734980225206389E+05,      /* I =*** */
(PID.TID 0000.0001)                 2.809856491525217E+05,      /* I =*** */
(PID.TID 0000.0001)                 2.872580915202295E+05,      /* I =*** */
(PID.TID 0000.0001)                 2.923567890694162E+05,      /* I =*** */
(PID.TID 0000.0001)                 2.963063101754721E+05,      /* I =*** */
(PID.TID 0000.0001)                 2.991205495886625E+05,      /* I =*** */
(PID.TID 0000.0001)                 3.008068453676764E+05,      /* I =*** */
(PID.TID 0000.0001)                 3.013686170436881E+05,      /* I =*** */
(PID.TID 0000.0001)                 3.008068453676764E+05,      /* I =*** */
(PID.TID 0000.0001)                 2.991205495886625E+05,      /* I =*** */
(PID.TID 0000.0001)                 2.963063101754721E+05,      /* I =*** */
(PID.TID 0000.0001)                 2.923567890694162E+05,      /* I =*** */
(PID.TID 0000.0001)                 2.872580915202295E+05,      /* I =*** */
(PID.TID 0000.0001)                 2.809856491525217E+05,      /* I =*** */
(PID.TID 0000.0001)                 2.734980225206389E+05,      /* I =*** */
(PID.TID 0000.0001)                 2.647274964828301E+05,      /* I =*** */
(PID.TID 0000.0001)                 2.545652950875683E+05,      /* I =*** */
(PID.TID 0000.0001)                 2.428369969078989E+05,      /* I =*** */
(PID.TID 0000.0001)                 2.292584591272880E+05,      /* I =*** */
(PID.TID 0000.0001)                 2.133486626971531E+05,      /* I =*** */
(PID.TID 0000.0001)                 1.942331448101592E+05,      /* I =*** */
(PID.TID 0000.0001)                 1.701080315742101E+05,      /* I =*** */
(PID.TID 0000.0001)                 1.362652340208229E+05,      /* I =*** */
(PID.TID 0000.0001)                 2.130490056267208E+05,      /* I =*** */
(PID.TID 0000.0001)                 2.151952039065076E+05,      /* I =*** */
(PID.TID 0000.0001)                 2.210230919927305E+05,      /* I =*** */
(PID.TID 0000.0001)                 2.292001529844996E+05,      /* I =*** */
(PID.TID 0000.0001)                 2.384665985420439E+05,      /* I =*** */
(PID.TID 0000.0001)                 2.479605721914797E+05,      /* I =*** */
(PID.TID 0000.0001)                 2.571738365323154E+05,      /* I =*** */
(PID.TID 0000.0001)                 2.658231272290965E+05,      /* I =*** */
(PID.TID 0000.0001)                 2.737508146608168E+05,      /* I =*** */
(PID.TID 0000.0001)                 2.808657735933971E+05,      /* I =*** */
(PID.TID 0000.0001)                 2.871115158847630E+05,      /* I =*** */
(PID.TID 0000.0001)                 2.924498520269555E+05,      /* I =*** */
(PID.TID 0000.0001)                 2.968528632519549E+05,      /* I =*** */
(PID.TID 0000.0001)                 3.002992005891529E+05,      /* I =*** */
(PID.TID 0000.0001)                 3.027725787805746E+05,      /* I =*** */
(PID.TID 0000.0001)                 3.042613245420325E+05,      /* I =*** */
(PID.TID 0000.0001)                 3.047583645125296E+05,      /* I =*** */
(PID.TID 0000.0001)                 3.042613245420325E+05,      /* I =*** */
(PID.TID 0000.0001)                 3.027725787805746E+05,      /* I =*** */
(PID.TID 0000.0001)                 3.002992005891529E+05,      /* I =*** */
(PID.TID 0000.0001)                 2.968528632519549E+05,      /* I =*** */
(PID.TID 0000.0001)                 2.924498520269555E+05,      /* I =*** */
(PID.TID 0000.0001)                 2.871115158847630E+05,      /* I =*** */
(PID.TID 0000.0001)                 2.808657735933971E+05,      /* I =*** */
(PID.TID 0000.0001)                 2.737508146608168E+05,      /* I =*** */
(PID.TID 0000.0001)                 2.658231272290965E+05,      /* I =*** */
(PID.TID 0000.0001)                 2.571738365323154E+05,      /* I =*** */
(PID.TID 0000.0001)                 2.479605721914797E+05,      /* I =*** */
(PID.TID 0000.0001)                 2.384665985420439E+05,      /* I =*** */
(PID.TID 0000.0001)                 2.292001529844996E+05,      /* I =*** */
(PID.TID 0000.0001)                 2.210230919927305E+05,      /* I =*** */
(PID.TID 0000.0001)                 2.151952039065076E+05,      /* I =*** */
(PID.TID 0000.0001)                 2.646201463834826E+05,      /* I =*** */
(PID.TID 0000.0001)                 2.652526003845025E+05,      /* I =*** */
(PID.TID 0000.0001)                 2.670927303518708E+05,      /* I =*** */
(PID.TID 0000.0001)                 2.699827671480681E+05,      /* I =*** */
(PID.TID 0000.0001)                 2.736990267615226E+05,      /* I =*** */
(PID.TID 0000.0001)                 2.779916120128523E+05,      /* I =*** */
(PID.TID 0000.0001)                 2.826160808445005E+05,      /* I =*** */
(PID.TID 0000.0001)                 2.873521397259874E+05,      /* I =*** */
(PID.TID 0000.0001)                 2.920110325953347E+05,      /* I =*** */
(PID.TID 0000.0001)                 2.964357882521720E+05,      /* I =*** */
(PID.TID 0000.0001)                 3.004981128361199E+05,      /* I =*** */
(PID.TID 0000.0001)                 3.040943772920999E+05,      /* I =*** */
(PID.TID 0000.0001)                 3.071419371354089E+05,      /* I =*** */
(PID.TID 0000.0001)                 3.095762378441247E+05,      /* I =*** */
(PID.TID 0000.0001)                 3.113487493857945E+05,      /* I =*** */
(PID.TID 0000.0001)                 3.124256032686725E+05,      /* I =*** */
(PID.TID 0000.0001)                 3.127867656729039E+05,      /* I =*** */
(PID.TID 0000.0001)                 3.124256032686725E+05,      /* I =*** */
(PID.TID 0000.0001)                 3.113487493857945E+05,      /* I =*** */
(PID.TID 0000.0001)                 3.095762378441247E+05,      /* I =*** */
(PID.TID 0000.0001)                 3.071419371354089E+05,      /* I =*** */
(PID.TID 0000.0001)                 3.040943772920999E+05,      /* I =*** */
(PID.TID 0000.0001)                 3.004981128361199E+05,      /* I =*** */
(PID.TID 0000.0001)                 2.964357882521720E+05,      /* I =*** */
(PID.TID 0000.0001)                 2.920110325953347E+05,      /* I =*** */
(PID.TID 0000.0001)                 2.873521397259874E+05,      /* I =*** */
(PID.TID 0000.0001)                 2.826160808445005E+05,      /* I =*** */
(PID.TID 0000.0001)                 2.779916120128523E+05,      /* I =*** */
(PID.TID 0000.0001)                 2.736990267615226E+05,      /* I =*** */
(PID.TID 0000.0001)                 2.699827671480681E+05,      /* I =*** */
(PID.TID 0000.0001)                 2.670927303518708E+05,      /* I =*** */
(PID.TID 0000.0001)                 2.652526003845025E+05,      /* I =*** */
(PID.TID 0000.0001)                 2.922844849381675E+05,      /* I =*** */
(PID.TID 0000.0001)                 2.925855316768774E+05,      /* I =*** */
(PID.TID 0000.0001)                 2.934729433396924E+05,      /* I =*** */
(PID.TID 0000.0001)                 2.949010866948440E+05,      /* I =*** */
(PID.TID 0000.0001)                 2.967987247986380E+05,      /* I =*** */
(PID.TID 0000.0001)                 2.990751451996336E+05,      /* I =*** */
(PID.TID 0000.0001)                 3.016269818888814E+05,      /* I =*** */
(PID.TID 0000.0001)                 3.043447463267440E+05,      /* I =*** */
(PID.TID 0000.0001)                 3.071184425324030E+05,      /* I =*** */
(PID.TID 0000.0001)                 3.098420252519152E+05,      /* I =*** */
(PID.TID 0000.0001)                 3.124167445866441E+05,      /* I =*** */
(PID.TID 0000.0001)                 3.147535691213495E+05,      /* I =*** */
(PID.TID 0000.0001)                 3.167749168862456E+05,      /* I =*** */
(PID.TID 0000.0001)                 3.184158948257520E+05,      /* I =*** */
(PID.TID 0000.0001)                 3.196251931162167E+05,      /* I =*** */
(PID.TID 0000.0001)                 3.203657264011034E+05,      /* I =*** */
(PID.TID 0000.0001)                 3.206150718566154E+05,      /* I =*** */
(PID.TID 0000.0001)                 3.203657264011034E+05,      /* I =*** */
(PID.TID 0000.0001)                 3.196251931162167E+05,      /* I =*** */
(PID.TID 0000.0001)                 3.184158948257520E+05,      /* I =*** */
(PID.TID 0000.0001)                 3.167749168862456E+05,      /* I =*** */
(PID.TID 0000.0001)                 3.147535691213495E+05,      /* I =*** */
(PID.TID 0000.0001)                 3.124167445866441E+05,      /* I =*** */
(PID.TID 0000.0001)                 3.098420252519152E+05,      /* I =*** */
(PID.TID 0000.0001)                 3.071184425324030E+05,      /* I =*** */
(PID.TID 0000.0001)                 3.043447463267440E+05,      /* I =*** */
(PID.TID 0000.0001)                 3.016269818888814E+05,      /* I =*** */
(PID.TID 0000.0001)                 2.990751451996336E+05,      /* I =*** */
(PID.TID 0000.0001)                 2.967987247986380E+05,      /* I =*** */
(PID.TID 0000.0001)                 2.949010866948440E+05,      /* I =*** */
(PID.TID 0000.0001)                 2.934729433396924E+05,      /* I =*** */
(PID.TID 0000.0001)                 2.925855316768774E+05,      /* I =*** */
(PID.TID 0000.0001)                 3.013031486919771E+05,      /* I =*** */
(PID.TID 0000.0001)                 3.015274890091515E+05,      /* I =*** */
(PID.TID 0000.0001)                 3.021908563699420E+05,      /* I =*** */
(PID.TID 0000.0001)                 3.032648502024415E+05,      /* I =*** */
(PID.TID 0000.0001)                 3.047039405458409E+05,      /* I =*** */
(PID.TID 0000.0001)                 3.064479682824742E+05,      /* I =*** */
(PID.TID 0000.0001)                 3.084252792046263E+05,      /* I =*** */
(PID.TID 0000.0001)                 3.105562173056038E+05,      /* I =*** */
(PID.TID 0000.0001)                 3.127567211383312E+05,      /* I =*** */
(PID.TID 0000.0001)                 3.149418154158797E+05,      /* I =*** */
(PID.TID 0000.0001)                 3.170288504389129E+05,      /* I =*** */
(PID.TID 0000.0001)                 3.189403993331409E+05,      /* I =*** */
(PID.TID 0000.0001)                 3.206067683235888E+05,      /* I =*** */
(PID.TID 0000.0001)                 3.219681053727232E+05,      /* I =*** */
(PID.TID 0000.0001)                 3.229761089393431E+05,      /* I =*** */
(PID.TID 0000.0001)                 3.235953450756532E+05,      /* I =*** */
(PID.TID 0000.0001)                 3.238041816275029E+05,      /* I =*** */
(PID.TID 0000.0001)                 3.235953450756532E+05,      /* I =*** */
(PID.TID 0000.0001)                 3.229761089393431E+05,      /* I =*** */
(PID.TID 0000.0001)                 3.219681053727232E+05,      /* I =*** */
(PID.TID 0000.0001)                 3.206067683235888E+05,      /* I =*** */
(PID.TID 0000.0001)                 3.189403993331409E+05,      /* I =*** */
(PID.TID 0000.0001)                 3.170288504389129E+05,      /* I =*** */
(PID.TID 0000.0001)                 3.149418154158797E+05,      /* I =*** */
(PID.TID 0000.0001)                 3.127567211383312E+05,      /* I =*** */
(PID.TID 0000.0001)                 3.105562173056038E+05,      /* I =*** */
(PID.TID 0000.0001)                 3.084252792046263E+05,      /* I =*** */
(PID.TID 0000.0001)                 3.064479682824742E+05,      /* I =*** */
(PID.TID 0000.0001)                 3.047039405458409E+05,      /* I =*** */
(PID.TID 0000.0001)                 3.032648502024415E+05,      /* I =*** */
(PID.TID 0000.0001)                 3.021908563699420E+05,      /* I =*** */
(PID.TID 0000.0001)                 3.015274890091515E+05,      /* I =*** */
(PID.TID 0000.0001)                 2.922844849381675E+05,      /* I =*** */
(PID.TID 0000.0001)                 2.925855316768774E+05,      /* I =*** */
(PID.TID 0000.0001)                 2.934729433396924E+05,      /* I =*** */
(PID.TID 0000.0001)                 2.949010866948440E+05,      /* I =*** */
(PID.TID 0000.0001)                 2.967987247986380E+05,      /* I =*** */
(PID.TID 0000.0001)                 2.990751451996336E+05,      /* I =*** */
(PID.TID 0000.0001)                 3.016269818888814E+05,      /* I =*** */
(PID.TID 0000.0001)                 3.043447463267440E+05,      /* I =*** */
(PID.TID 0000.0001)                 3.071184425324030E+05,      /* I =*** */
(PID.TID 0000.0001)                 3.098420252519152E+05,      /* I =*** */
(PID.TID 0000.0001)                 3.124167445866441E+05,      /* I =*** */
(PID.TID 0000.0001)                 3.147535691213495E+05,      /* I =*** */
(PID.TID 0000.0001)                 3.167749168862456E+05,      /* I =*** */
(PID.TID 0000.0001)                 3.184158948257520E+05,      /* I =*** */
(PID.TID 0000.0001)                 3.196251931162167E+05,      /* I =*** */
(PID.TID 0000.0001)                 3.203657264011034E+05,      /* I =*** */
(PID.TID 0000.0001)                 3.206150718566154E+05,      /* I =*** */
(PID.TID 0000.0001)                 3.203657264011034E+05,      /* I =*** */
(PID.TID 0000.0001)                 3.196251931162167E+05,      /* I =*** */
(PID.TID 0000.0001)                 3.184158948257520E+05,      /* I =*** */
(PID.TID 0000.0001)                 3.167749168862456E+05,      /* I =*** */
(PID.TID 0000.0001)                 3.147535691213495E+05,      /* I =*** */
(PID.TID 0000.0001)                 3.124167445866441E+05,      /* I =*** */
(PID.TID 0000.0001)                 3.098420252519152E+05,      /* I =*** */
(PID.TID 0000.0001)                 3.071184425324030E+05,      /* I =*** */
(PID.TID 0000.0001)                 3.043447463267440E+05,      /* I =*** */
(PID.TID 0000.0001)                 3.016269818888814E+05,      /* I =*** */
(PID.TID 0000.0001)                 2.990751451996336E+05,      /* I =*** */
(PID.TID 0000.0001)                 2.967987247986380E+05,      /* I =*** */
(PID.TID 0000.0001)                 2.949010866948440E+05,      /* I =*** */
(PID.TID 0000.0001)                 2.934729433396924E+05,      /* I =*** */
(PID.TID 0000.0001)                 2.925855316768774E+05,      /* I =*** */
(PID.TID 0000.0001)                 2.646201463834826E+05,      /* I =*** */
(PID.TID 0000.0001)                 2.652526003845025E+05,      /* I =*** */
(PID.TID 0000.0001)                 2.670927303518708E+05,      /* I =*** */
(PID.TID 0000.0001)                 2.699827671480681E+05,      /* I =*** */
(PID.TID 0000.0001)                 2.736990267615226E+05,      /* I =*** */
(PID.TID 0000.0001)                 2.779916120128523E+05,      /* I =*** */
(PID.TID 0000.0001)                 2.826160808445005E+05,      /* I =*** */
(PID.TID 0000.0001)                 2.873521397259874E+05,      /* I =*** */
(PID.TID 0000.0001)                 2.920110325953347E+05,      /* I =*** */
(PID.TID 0000.0001)                 2.964357882521720E+05,      /* I =*** */
(PID.TID 0000.0001)                 3.004981128361199E+05,      /* I =*** */
(PID.TID 0000.0001)                 3.040943772920999E+05,      /* I =*** */
(PID.TID 0000.0001)                 3.071419371354089E+05,      /* I =*** */
(PID.TID 0000.0001)                 3.095762378441247E+05,      /* I =*** */
(PID.TID 0000.0001)                 3.113487493857945E+05,      /* I =*** */
(PID.TID 0000.0001)                 3.124256032686725E+05,      /* I =*** */
(PID.TID 0000.0001)                 3.127867656729039E+05,      /* I =*** */
(PID.TID 0000.0001)                 3.124256032686725E+05,      /* I =*** */
(PID.TID 0000.0001)                 3.113487493857945E+05,      /* I =*** */
(PID.TID 0000.0001)                 3.095762378441247E+05,      /* I =*** */
(PID.TID 0000.0001)                 3.071419371354089E+05,      /* I =*** */
(PID.TID 0000.0001)                 3.040943772920999E+05,      /* I =*** */
(PID.TID 0000.0001)                 3.004981128361199E+05,      /* I =*** */
(PID.TID 0000.0001)                 2.964357882521720E+05,      /* I =*** */
(PID.TID 0000.0001)                 2.920110325953347E+05,      /* I =*** */
(PID.TID 0000.0001)                 2.873521397259874E+05,      /* I =*** */
(PID.TID 0000.0001)                 2.826160808445005E+05,      /* I =*** */
(PID.TID 0000.0001)                 2.779916120128523E+05,      /* I =*** */
(PID.TID 0000.0001)                 2.736990267615226E+05,      /* I =*** */
(PID.TID 0000.0001)                 2.699827671480681E+05,      /* I =*** */
(PID.TID 0000.0001)                 2.670927303518708E+05,      /* I =*** */
(PID.TID 0000.0001)                 2.652526003845025E+05,      /* I =*** */
(PID.TID 0000.0001)                 2.130490056267208E+05,      /* I =*** */
(PID.TID 0000.0001)                 2.151952039065076E+05,      /* I =*** */
(PID.TID 0000.0001)                 2.210230919927305E+05,      /* I =*** */
(PID.TID 0000.0001)                 2.292001529844996E+05,      /* I =*** */
(PID.TID 0000.0001)                 2.384665985420439E+05,      /* I =*** */
(PID.TID 0000.0001)                 2.479605721914797E+05,      /* I =*** */
(PID.TID 0000.0001)                 2.571738365323154E+05,      /* I =*** */
(PID.TID 0000.0001)                 2.658231272290965E+05,      /* I =*** */
(PID.TID 0000.0001)                 2.737508146608168E+05,      /* I =*** */
(PID.TID 0000.0001)                 2.808657735933971E+05,      /* I =*** */
(PID.TID 0000.0001)                 2.871115158847630E+05,      /* I =*** */
(PID.TID 0000.0001)                 2.924498520269555E+05,      /* I =*** */
(PID.TID 0000.0001)                 2.968528632519549E+05,      /* I =*** */
(PID.TID 0000.0001)                 3.002992005891529E+05,      /* I =*** */
(PID.TID 0000.0001)                 3.027725787805746E+05,      /* I =*** */
(PID.TID 0000.0001)                 3.042613245420325E+05,      /* I =*** */
(PID.TID 0000.0001)                 3.047583645125296E+05,      /* I =*** */
(PID.TID 0000.0001)                 3.042613245420325E+05,      /* I =*** */
(PID.TID 0000.0001)                 3.027725787805746E+05,      /* I =*** */
(PID.TID 0000.0001)                 3.002992005891529E+05,      /* I =*** */
(PID.TID 0000.0001)                 2.968528632519549E+05,      /* I =*** */
(PID.TID 0000.0001)                 2.924498520269555E+05,      /* I =*** */
(PID.TID 0000.0001)                 2.871115158847630E+05,      /* I =*** */
(PID.TID 0000.0001)                 2.808657735933971E+05,      /* I =*** */
(PID.TID 0000.0001)                 2.737508146608168E+05,      /* I =*** */
(PID.TID 0000.0001)                 2.658231272290965E+05,      /* I =*** */
(PID.TID 0000.0001)                 2.571738365323154E+05,      /* I =*** */
(PID.TID 0000.0001)                 2.479605721914797E+05,      /* I =*** */
(PID.TID 0000.0001)                 2.384665985420439E+05,      /* I =*** */
(PID.TID 0000.0001)                 2.292001529844996E+05,      /* I =*** */
(PID.TID 0000.0001)                 2.210230919927305E+05,      /* I =*** */
(PID.TID 0000.0001)                 2.151952039065076E+05,      /* I =*** */
(PID.TID 0000.0001)                 8.015229982413632E+04,      /* I =*** */
(PID.TID 0000.0001)                 1.362652340208229E+05,      /* I =*** */
(PID.TID 0000.0001)                 1.701080315742101E+05,      /* I =*** */
(PID.TID 0000.0001)                 1.942331448101592E+05,      /* I =*** */
(PID.TID 0000.0001)                 2.133486626971531E+05,      /* I =*** */
(PID.TID 0000.0001)                 2.292584591272880E+05,      /* I =*** */
(PID.TID 0000.0001)                 2.428369969078989E+05,      /* I =*** */
(PID.TID 0000.0001)                 2.545652950875683E+05,      /* I =*** */
(PID.TID 0000.0001)                 2.647274964828301E+05,      /* I =*** */
(PID.TID 0000.0001)                 2.734980225206389E+05,      /* I =*** */
(PID.TID 0000.0001)                 2.809856491525217E+05,      /* I =*** */
(PID.TID 0000.0001)                 2.872580915202295E+05,      /* I =*** */
(PID.TID 0000.0001)                 2.923567890694162E+05,      /* I =*** */
(PID.TID 0000.0001)                 2.963063101754721E+05,      /* I =*** */
(PID.TID 0000.0001)                 2.991205495886625E+05,      /* I =*** */
(PID.TID 0000.0001)                 3.008068453676764E+05,      /* I =*** */
(PID.TID 0000.0001)                 3.013686170436881E+05,      /* I =*** */
(PID.TID 0000.0001)                 3.008068453676764E+05,      /* I =*** */
(PID.TID 0000.0001)                 2.991205495886625E+05,      /* I =*** */
(PID.TID 0000.0001)                 2.963063101754721E+05,      /* I =*** */
(PID.TID 0000.0001)                 2.923567890694162E+05,      /* I =*** */
(PID.TID 0000.0001)                 2.872580915202295E+05,      /* I =*** */
(PID.TID 0000.0001)                 2.809856491525217E+05,      /* I =*** */
(PID.TID 0000.0001)                 2.734980225206389E+05,      /* I =*** */
(PID.TID 0000.0001)                 2.647274964828301E+05,      /* I =*** */
(PID.TID 0000.0001)                 2.545652950875683E+05,      /* I =*** */
(PID.TID 0000.0001)                 2.428369969078989E+05,      /* I =*** */
(PID.TID 0000.0001)                 2.292584591272880E+05,      /* I =*** */
(PID.TID 0000.0001)                 2.133486626971531E+05,      /* I =*** */
(PID.TID 0000.0001)                 1.942331448101592E+05,      /* I =*** */
(PID.TID 0000.0001)                 1.701080315742101E+05,      /* I =*** */
(PID.TID 0000.0001)                 1.362652340208229E+05,      /* I =*** */
(PID.TID 0000.0001)                 2.130490056267208E+05,      /* I =*** */
(PID.TID 0000.0001)                 2.151952039065076E+05,      /* I =*** */
(PID.TID 0000.0001)                 2.210230919927305E+05,      /* I =*** */
(PID.TID 0000.0001)                 2.292001529844996E+05,      /* I =*** */
(PID.TID 0000.0001)                 2.384665985420439E+05,      /* I =*** */
(PID.TID 0000.0001)                 2.479605721914797E+05,      /* I =*** */
(PID.TID 0000.0001)                 2.571738365323154E+05,      /* I =*** */
(PID.TID 0000.0001)                 2.658231272290965E+05,      /* I =*** */
(PID.TID 0000.0001)                 2.737508146608168E+05,      /* I =*** */
(PID.TID 0000.0001)                 2.808657735933971E+05,      /* I =*** */
(PID.TID 0000.0001)                 2.871115158847630E+05,      /* I =*** */
(PID.TID 0000.0001)                 2.924498520269555E+05,      /* I =*** */
(PID.TID 0000.0001)                 2.968528632519549E+05,      /* I =*** */
(PID.TID 0000.0001)                 3.002992005891529E+05,      /* I =*** */
(PID.TID 0000.0001)                 3.027725787805746E+05,      /* I =*** */
(PID.TID 0000.0001)                 3.042613245420325E+05,      /* I =*** */
(PID.TID 0000.0001)                 3.047583645125296E+05,      /* I =*** */
(PID.TID 0000.0001)                 3.042613245420325E+05,      /* I =*** */
(PID.TID 0000.0001)                 3.027725787805746E+05,      /* I =*** */
(PID.TID 0000.0001)                 3.002992005891529E+05,      /* I =*** */
(PID.TID 0000.0001)                 2.968528632519549E+05,      /* I =*** */
(PID.TID 0000.0001)                 2.924498520269555E+05,      /* I =*** */
(PID.TID 0000.0001)                 2.871115158847630E+05,      /* I =*** */
(PID.TID 0000.0001)                 2.808657735933971E+05,      /* I =*** */
(PID.TID 0000.0001)                 2.737508146608168E+05,      /* I =*** */
(PID.TID 0000.0001)                 2.658231272290965E+05,      /* I =*** */
(PID.TID 0000.0001)                 2.571738365323154E+05,      /* I =*** */
(PID.TID 0000.0001)                 2.479605721914797E+05,      /* I =*** */
(PID.TID 0000.0001)                 2.384665985420439E+05,      /* I =*** */
(PID.TID 0000.0001)                 2.292001529844996E+05,      /* I =*** */
(PID.TID 0000.0001)                 2.210230919927305E+05,      /* I =*** */
(PID.TID 0000.0001)                 2.151952039065076E+05,      /* I =*** */
(PID.TID 0000.0001)                 2.646201463834826E+05,      /* I =*** */
(PID.TID 0000.0001)                 2.652526003845025E+05,      /* I =*** */
(PID.TID 0000.0001)                 2.670927303518708E+05,      /* I =*** */
(PID.TID 0000.0001)                 2.699827671480681E+05,      /* I =*** */
(PID.TID 0000.0001)                 2.736990267615226E+05,      /* I =*** */
(PID.TID 0000.0001)                 2.779916120128523E+05,      /* I =*** */
(PID.TID 0000.0001)                 2.826160808445005E+05,      /* I =*** */
(PID.TID 0000.0001)                 2.873521397259874E+05,      /* I =*** */
(PID.TID 0000.0001)                 2.920110325953347E+05,      /* I =*** */
(PID.TID 0000.0001)                 2.964357882521720E+05,      /* I =*** */
(PID.TID 0000.0001)                 3.004981128361199E+05,      /* I =*** */
(PID.TID 0000.0001)                 3.040943772920999E+05,      /* I =*** */
(PID.TID 0000.0001)                 3.071419371354089E+05,      /* I =*** */
(PID.TID 0000.0001)                 3.095762378441247E+05,      /* I =*** */
(PID.TID 0000.0001)                 3.113487493857945E+05,      /* I =*** */
(PID.TID 0000.0001)                 3.124256032686725E+05,      /* I =*** */
(PID.TID 0000.0001)                 3.127867656729039E+05,      /* I =*** */
(PID.TID 0000.0001)                 3.124256032686725E+05,      /* I =*** */
(PID.TID 0000.0001)                 3.113487493857945E+05,      /* I =*** */
(PID.TID 0000.0001)                 3.095762378441247E+05,      /* I =*** */
(PID.TID 0000.0001)                 3.071419371354089E+05,      /* I =*** */
(PID.TID 0000.0001)                 3.040943772920999E+05,      /* I =*** */
(PID.TID 0000.0001)                 3.004981128361199E+05,      /* I =*** */
(PID.TID 0000.0001)                 2.964357882521720E+05,      /* I =*** */
(PID.TID 0000.0001)                 2.920110325953347E+05,      /* I =*** */
(PID.TID 0000.0001)                 2.873521397259874E+05,      /* I =*** */
(PID.TID 0000.0001)                 2.826160808445005E+05,      /* I =*** */
(PID.TID 0000.0001)                 2.779916120128523E+05,      /* I =*** */
(PID.TID 0000.0001)                 2.736990267615226E+05,      /* I =*** */
(PID.TID 0000.0001)                 2.699827671480681E+05,      /* I =*** */
(PID.TID 0000.0001)                 2.670927303518708E+05,      /* I =*** */
(PID.TID 0000.0001)                 2.652526003845025E+05,      /* I =*** */
(PID.TID 0000.0001)                 2.922844849381675E+05,      /* I =*** */
(PID.TID 0000.0001)                 2.925855316768774E+05,      /* I =*** */
(PID.TID 0000.0001)                 2.934729433396924E+05,      /* I =*** */
(PID.TID 0000.0001)                 2.949010866948440E+05,      /* I =*** */
(PID.TID 0000.0001)                 2.967987247986380E+05,      /* I =*** */
(PID.TID 0000.0001)                 2.990751451996336E+05,      /* I =*** */
(PID.TID 0000.0001)                 3.016269818888814E+05,      /* I =*** */
(PID.TID 0000.0001)                 3.043447463267440E+05,      /* I =*** */
(PID.TID 0000.0001)                 3.071184425324030E+05,      /* I =*** */
(PID.TID 0000.0001)                 3.098420252519152E+05,      /* I =*** */
(PID.TID 0000.0001)                 3.124167445866441E+05,      /* I =*** */
(PID.TID 0000.0001)                 3.147535691213495E+05,      /* I =*** */
(PID.TID 0000.0001)                 3.167749168862456E+05,      /* I =*** */
(PID.TID 0000.0001)                 3.184158948257520E+05,      /* I =*** */
(PID.TID 0000.0001)                 3.196251931162167E+05,      /* I =*** */
(PID.TID 0000.0001)                 3.203657264011034E+05,      /* I =*** */
(PID.TID 0000.0001)                 3.206150718566154E+05,      /* I =*** */
(PID.TID 0000.0001)                 3.203657264011034E+05,      /* I =*** */
(PID.TID 0000.0001)                 3.196251931162167E+05,      /* I =*** */
(PID.TID 0000.0001)                 3.184158948257520E+05,      /* I =*** */
(PID.TID 0000.0001)                 3.167749168862456E+05,      /* I =*** */
(PID.TID 0000.0001)                 3.147535691213495E+05,      /* I =*** */
(PID.TID 0000.0001)                 3.124167445866441E+05,      /* I =*** */
(PID.TID 0000.0001)                 3.098420252519152E+05,      /* I =*** */
(PID.TID 0000.0001)                 3.071184425324030E+05,      /* I =*** */
(PID.TID 0000.0001)                 3.043447463267440E+05,      /* I =*** */
(PID.TID 0000.0001)                 3.016269818888814E+05,      /* I =*** */
(PID.TID 0000.0001)                 2.990751451996336E+05,      /* I =*** */
(PID.TID 0000.0001)                 2.967987247986380E+05,      /* I =*** */
(PID.TID 0000.0001)                 2.949010866948440E+05,      /* I =*** */
(PID.TID 0000.0001)                 2.934729433396924E+05,      /* I =*** */
(PID.TID 0000.0001)                 2.925855316768774E+05,      /* I =*** */
(PID.TID 0000.0001)                 3.013031486919771E+05,      /* I =*** */
(PID.TID 0000.0001)                 3.015274890091515E+05,      /* I =*** */
(PID.TID 0000.0001)                 3.021908563699420E+05,      /* I =*** */
(PID.TID 0000.0001)                 3.032648502024415E+05,      /* I =*** */
(PID.TID 0000.0001)                 3.047039405458409E+05,      /* I =*** */
(PID.TID 0000.0001)                 3.064479682824742E+05,      /* I =*** */
(PID.TID 0000.0001)                 3.084252792046263E+05,      /* I =*** */
(PID.TID 0000.0001)                 3.105562173056038E+05,      /* I =*** */
(PID.TID 0000.0001)                 3.127567211383312E+05,      /* I =*** */
(PID.TID 0000.0001)                 3.149418154158797E+05,      /* I =*** */
(PID.TID 0000.0001)                 3.170288504389129E+05,      /* I =*** */
(PID.TID 0000.0001)                 3.189403993331409E+05,      /* I =*** */
(PID.TID 0000.0001)                 3.206067683235888E+05,      /* I =*** */
(PID.TID 0000.0001)                 3.219681053727232E+05,      /* I =*** */
(PID.TID 0000.0001)                 3.229761089393431E+05,      /* I =*** */
(PID.TID 0000.0001)                 3.235953450756532E+05,      /* I =*** */
(PID.TID 0000.0001)                 3.238041816275029E+05,      /* I =*** */
(PID.TID 0000.0001)                 3.235953450756532E+05,      /* I =*** */
(PID.TID 0000.0001)                 3.229761089393431E+05,      /* I =*** */
(PID.TID 0000.0001)                 3.219681053727232E+05,      /* I =*** */
(PID.TID 0000.0001)                 3.206067683235888E+05,      /* I =*** */
(PID.TID 0000.0001)                 3.189403993331409E+05,      /* I =*** */
(PID.TID 0000.0001)                 3.170288504389129E+05,      /* I =*** */
(PID.TID 0000.0001)                 3.149418154158797E+05,      /* I =*** */
(PID.TID 0000.0001)                 3.127567211383312E+05,      /* I =*** */
(PID.TID 0000.0001)                 3.105562173056038E+05,      /* I =*** */
(PID.TID 0000.0001)                 3.084252792046263E+05,      /* I =*** */
(PID.TID 0000.0001)                 3.064479682824742E+05,      /* I =*** */
(PID.TID 0000.0001)                 3.047039405458409E+05,      /* I =*** */
(PID.TID 0000.0001)                 3.032648502024415E+05,      /* I =*** */
(PID.TID 0000.0001)                 3.021908563699420E+05,      /* I =*** */
(PID.TID 0000.0001)                 3.015274890091515E+05,      /* I =*** */
(PID.TID 0000.0001)                 2.922844849381675E+05,      /* I =*** */
(PID.TID 0000.0001)                 2.925855316768774E+05,      /* I =*** */
(PID.TID 0000.0001)                 2.934729433396924E+05,      /* I =*** */
(PID.TID 0000.0001)                 2.949010866948440E+05,      /* I =*** */
(PID.TID 0000.0001)                 2.967987247986380E+05,      /* I =*** */
(PID.TID 0000.0001)                 2.990751451996336E+05,      /* I =*** */
(PID.TID 0000.0001)                 3.016269818888814E+05,      /* I =*** */
(PID.TID 0000.0001)                 3.043447463267440E+05,      /* I =*** */
(PID.TID 0000.0001)                 3.071184425324030E+05,      /* I =*** */
(PID.TID 0000.0001)                 3.098420252519152E+05,      /* I =*** */
(PID.TID 0000.0001)                 3.124167445866441E+05,      /* I =*** */
(PID.TID 0000.0001)                 3.147535691213495E+05,      /* I =*** */
(PID.TID 0000.0001)                 3.167749168862456E+05,      /* I =*** */
(PID.TID 0000.0001)                 3.184158948257520E+05,      /* I =*** */
(PID.TID 0000.0001)                 3.196251931162167E+05,      /* I =*** */
(PID.TID 0000.0001)                 3.203657264011034E+05,      /* I =*** */
(PID.TID 0000.0001)                 3.206150718566154E+05,      /* I =*** */
(PID.TID 0000.0001)                 3.203657264011034E+05,      /* I =*** */
(PID.TID 0000.0001)                 3.196251931162167E+05,      /* I =*** */
(PID.TID 0000.0001)                 3.184158948257520E+05,      /* I =*** */
(PID.TID 0000.0001)                 3.167749168862456E+05,      /* I =*** */
(PID.TID 0000.0001)                 3.147535691213495E+05,      /* I =*** */
(PID.TID 0000.0001)                 3.124167445866441E+05,      /* I =*** */
(PID.TID 0000.0001)                 3.098420252519152E+05,      /* I =*** */
(PID.TID 0000.0001)                 3.071184425324030E+05,      /* I =*** */
(PID.TID 0000.0001)                 3.043447463267440E+05,      /* I =*** */
(PID.TID 0000.0001)                 3.016269818888814E+05,      /* I =*** */
(PID.TID 0000.0001)                 2.990751451996336E+05,      /* I =*** */
(PID.TID 0000.0001)                 2.967987247986380E+05,      /* I =*** */
(PID.TID 0000.0001)                 2.949010866948440E+05,      /* I =*** */
(PID.TID 0000.0001)                 2.934729433396924E+05,      /* I =*** */
(PID.TID 0000.0001)                 2.925855316768774E+05,      /* I =*** */
(PID.TID 0000.0001)                 2.646201463834826E+05,      /* I =*** */
(PID.TID 0000.0001)                 2.652526003845025E+05,      /* I =*** */
(PID.TID 0000.0001)                 2.670927303518708E+05,      /* I =*** */
(PID.TID 0000.0001)                 2.699827671480681E+05,      /* I =*** */
(PID.TID 0000.0001)                 2.736990267615226E+05,      /* I =*** */
(PID.TID 0000.0001)                 2.779916120128523E+05,      /* I =*** */
(PID.TID 0000.0001)                 2.826160808445005E+05,      /* I =*** */
(PID.TID 0000.0001)                 2.873521397259874E+05,      /* I =*** */
(PID.TID 0000.0001)                 2.920110325953347E+05,      /* I =*** */
(PID.TID 0000.0001)                 2.964357882521720E+05,      /* I =*** */
(PID.TID 0000.0001)                 3.004981128361199E+05,      /* I =*** */
(PID.TID 0000.0001)                 3.040943772920999E+05,      /* I =*** */
(PID.TID 0000.0001)                 3.071419371354089E+05,      /* I =*** */
(PID.TID 0000.0001)                 3.095762378441247E+05,      /* I =*** */
(PID.TID 0000.0001)                 3.113487493857945E+05,      /* I =*** */
(PID.TID 0000.0001)                 3.124256032686725E+05,      /* I =*** */
(PID.TID 0000.0001)                 3.127867656729039E+05,      /* I =*** */
(PID.TID 0000.0001)                 3.124256032686725E+05,      /* I =*** */
(PID.TID 0000.0001)                 3.113487493857945E+05,      /* I =*** */
(PID.TID 0000.0001)                 3.095762378441247E+05,      /* I =*** */
(PID.TID 0000.0001)                 3.071419371354089E+05,      /* I =*** */
(PID.TID 0000.0001)                 3.040943772920999E+05,      /* I =*** */
(PID.TID 0000.0001)                 3.004981128361199E+05,      /* I =*** */
(PID.TID 0000.0001)                 2.964357882521720E+05,      /* I =*** */
(PID.TID 0000.0001)                 2.920110325953347E+05,      /* I =*** */
(PID.TID 0000.0001)                 2.873521397259874E+05,      /* I =*** */
(PID.TID 0000.0001)                 2.826160808445005E+05,      /* I =*** */
(PID.TID 0000.0001)                 2.779916120128523E+05,      /* I =*** */
(PID.TID 0000.0001)                 2.736990267615226E+05,      /* I =*** */
(PID.TID 0000.0001)                 2.699827671480681E+05,      /* I =*** */
(PID.TID 0000.0001)                 2.670927303518708E+05,      /* I =*** */
(PID.TID 0000.0001)                 2.652526003845025E+05,      /* I =*** */
(PID.TID 0000.0001)                 2.130490056267208E+05,      /* I =*** */
(PID.TID 0000.0001)                 2.151952039065076E+05,      /* I =*** */
(PID.TID 0000.0001)                 2.210230919927305E+05,      /* I =*** */
(PID.TID 0000.0001)                 2.292001529844996E+05,      /* I =*** */
(PID.TID 0000.0001)                 2.384665985420439E+05,      /* I =*** */
(PID.TID 0000.0001)                 2.479605721914797E+05,      /* I =*** */
(PID.TID 0000.0001)                 2.571738365323154E+05,      /* I =*** */
(PID.TID 0000.0001)                 2.658231272290965E+05,      /* I =*** */
(PID.TID 0000.0001)                 2.737508146608168E+05,      /* I =*** */
(PID.TID 0000.0001)                 2.808657735933971E+05,      /* I =*** */
(PID.TID 0000.0001)                 2.871115158847630E+05,      /* I =*** */
(PID.TID 0000.0001)                 2.924498520269555E+05,      /* I =*** */
(PID.TID 0000.0001)                 2.968528632519549E+05,      /* I =*** */
(PID.TID 0000.0001)                 3.002992005891529E+05,      /* I =*** */
(PID.TID 0000.0001)                 3.027725787805746E+05,      /* I =*** */
(PID.TID 0000.0001)                 3.042613245420325E+05,      /* I =*** */
(PID.TID 0000.0001)                 3.047583645125296E+05,      /* I =*** */
(PID.TID 0000.0001)                 3.042613245420325E+05,      /* I =*** */
(PID.TID 0000.0001)                 3.027725787805746E+05,      /* I =*** */
(PID.TID 0000.0001)                 3.002992005891529E+05,      /* I =*** */
(PID.TID 0000.0001)                 2.968528632519549E+05,      /* I =*** */
(PID.TID 0000.0001)                 2.924498520269555E+05,      /* I =*** */
(PID.TID 0000.0001)                 2.871115158847630E+05,      /* I =*** */
(PID.TID 0000.0001)                 2.808657735933971E+05,      /* I =*** */
(PID.TID 0000.0001)                 2.737508146608168E+05,      /* I =*** */
(PID.TID 0000.0001)                 2.658231272290965E+05,      /* I =*** */
(PID.TID 0000.0001)                 2.571738365323154E+05,      /* I =*** */
(PID.TID 0000.0001)                 2.479605721914797E+05,      /* I =*** */
(PID.TID 0000.0001)                 2.384665985420439E+05,      /* I =*** */
(PID.TID 0000.0001)                 2.292001529844996E+05,      /* I =*** */
(PID.TID 0000.0001)                 2.210230919927305E+05,      /* I =*** */
(PID.TID 0000.0001)                 2.151952039065076E+05       /* I =*** */
(PID.TID 0000.0001)     ;
(PID.TID 0000.0001) dyU =  /* dyU(1,:,1,:) ( m - cartesian, degrees - spherical ) */
(PID.TID 0000.0001)                 8.015229982413632E+04,      /* J =  1 */
(PID.TID 0000.0001)                 1.333130744933864E+05,      /* J =  2 */
(PID.TID 0000.0001)                 1.691744868129062E+05,      /* J =  3 */
(PID.TID 0000.0001)                 1.937548202849060E+05       /* J =  4 */
(PID.TID 0000.0001)     ;
(PID.TID 0000.0001) rA =  /* rA(:,1,:,1) ( m - cartesian, degrees - spherical ) */
(PID.TID 0000.0001)                 1.401900702255611E+10,      /* I =  1 */
(PID.TID 0000.0001)                 2.459906945574446E+10,      /* I =  2 */
(PID.TID 0000.0001)                 3.378518544307869E+10,      /* I =  3 */
(PID.TID 0000.0001)                 4.192037169898667E+10,      /* I =  4 */
(PID.TID 0000.0001)                 4.925938996118163E+10,      /* I =  5 */
(PID.TID 0000.0001)                 5.594154126607553E+10,      /* I =  6 */
(PID.TID 0000.0001)                 6.203683527772523E+10,      /* I =  7 */
(PID.TID 0000.0001)                 6.757541173817516E+10,      /* I =  8 */
(PID.TID 0000.0001)                 7.256353271748119E+10,      /* I =  9 */
(PID.TID 0000.0001)                 7.699293007098555E+10,      /* I = 10 */
(PID.TID 0000.0001)                 8.084683449728902E+10,      /* I = 11 */
(PID.TID 0000.0001)                 8.410423102796223E+10,      /* I = 12 */
(PID.TID 0000.0001)                 8.674306976737517E+10,      /* I = 13 */
(PID.TID 0000.0001)                 8.874277443041928E+10,      /* I = 14 */
(PID.TID 0000.0001)                 9.008620045350865E+10,      /* I = 15 */
(PID.TID 0000.0001)                 9.076111290418457E+10,      /* I = 16 */
(PID.TID 0000.0001)                 9.076111290422060E+10,      /* I = 17 */
(PID.TID 0000.0001)                 9.008620045354469E+10,      /* I = 18 */
(PID.TID 0000.0001)                 8.874277443041928E+10,      /* I = 19 */
(PID.TID 0000.0001)                 8.674306976741121E+10,      /* I = 20 */
(PID.TID 0000.0001)                 8.410423102799828E+10,      /* I = 21 */
(PID.TID 0000.0001)                 8.084683449728902E+10,      /* I = 22 */
(PID.TID 0000.0001)                 7.699293007098555E+10,      /* I = 23 */
(PID.TID 0000.0001)                 7.256353271748119E+10,      /* I = 24 */
(PID.TID 0000.0001)                 6.757541173817516E+10,      /* I = 25 */
(PID.TID 0000.0001)                 6.203683527772523E+10,      /* I = 26 */
(PID.TID 0000.0001)                 5.594154126611156E+10,      /* I = 27 */
(PID.TID 0000.0001)                 4.925938996118163E+10,      /* I = 28 */
(PID.TID 0000.0001)                 4.192037169898667E+10,      /* I = 29 */
(PID.TID 0000.0001)                 3.378518544304265E+10,      /* I = 30 */
(PID.TID 0000.0001)                 2.459906945574446E+10,      /* I = 31 */
(PID.TID 0000.0001)                 1.401900702259215E+10,      /* I = 32 */
(PID.TID 0000.0001)                 4.925938996118163E+10,      /* I = 33 */
(PID.TID 0000.0001)                 5.077234053174238E+10,      /* I = 34 */
(PID.TID 0000.0001)                 5.353037267574563E+10,      /* I = 35 */
(PID.TID 0000.0001)                 5.714531235245521E+10,      /* I = 36 */
(PID.TID 0000.0001)                 6.125259462314511E+10,      /* I = 37 */
(PID.TID 0000.0001)                 6.556931309633417E+10,      /* I = 38 */
(PID.TID 0000.0001)                 6.989166670270824E+10,      /* I = 39 */
(PID.TID 0000.0001)                 7.407378391965518E+10,      /* I = 40 */
(PID.TID 0000.0001)                 7.800802871997223E+10,      /* I = 41 */
(PID.TID 0000.0001)                 8.161143484441284E+10,      /* I = 42 */
(PID.TID 0000.0001)                 8.481751304090741E+10,      /* I = 43 */
(PID.TID 0000.0001)                 8.757174167036623E+10,      /* I = 44 */
(PID.TID 0000.0001)                 8.982934837778833E+10,      /* I = 45 */
(PID.TID 0000.0001)                 9.155442926157257E+10,      /* I = 46 */
(PID.TID 0000.0001)                 9.271978624749503E+10,      /* I = 47 */
(PID.TID 0000.0001)     2 @  9.330709899483766E+10,             /* I = 48: 49 */
(PID.TID 0000.0001)                 9.271978624745898E+10,      /* I = 50 */
(PID.TID 0000.0001)                 9.155442926157257E+10,      /* I = 51 */
(PID.TID 0000.0001)                 8.982934837778833E+10,      /* I = 52 */
(PID.TID 0000.0001)                 8.757174167036623E+10,      /* I = 53 */
(PID.TID 0000.0001)                 8.481751304090741E+10,      /* I = 54 */
(PID.TID 0000.0001)                 8.161143484437680E+10,      /* I = 55 */
(PID.TID 0000.0001)                 7.800802871997223E+10,      /* I = 56 */
(PID.TID 0000.0001)                 7.407378391965518E+10,      /* I = 57 */
(PID.TID 0000.0001)                 6.989166670270824E+10,      /* I = 58 */
(PID.TID 0000.0001)                 6.556931309633417E+10,      /* I = 59 */
(PID.TID 0000.0001)                 6.125259462318115E+10,      /* I = 60 */
(PID.TID 0000.0001)                 5.714531235245521E+10,      /* I = 61 */
(PID.TID 0000.0001)                 5.353037267574563E+10,      /* I = 62 */
(PID.TID 0000.0001)                 5.077234053177842E+10,      /* I = 63 */
(PID.TID 0000.0001)                 4.925938996118163E+10,      /* I = 64 */
(PID.TID 0000.0001)                 7.256353271748119E+10,      /* I = 65 */
(PID.TID 0000.0001)                 7.316560555603816E+10,      /* I = 66 */
(PID.TID 0000.0001)                 7.432809861291336E+10,      /* I = 67 */
(PID.TID 0000.0001)                 7.597507578906308E+10,      /* I = 68 */
(PID.TID 0000.0001)                 7.800802871993619E+10,      /* I = 69 */
(PID.TID 0000.0001)                 8.031792520226384E+10,      /* I = 70 */
(PID.TID 0000.0001)                 8.279477205479343E+10,      /* I = 71 */
(PID.TID 0000.0001)                 8.533379325707961E+10,      /* I = 72 */
(PID.TID 0000.0001)                 8.783871201160951E+10,      /* I = 73 */
(PID.TID 0000.0001)                 9.022313873522023E+10,      /* I = 74 */
(PID.TID 0000.0001)                 9.241098780606058E+10,      /* I = 75 */
(PID.TID 0000.0001)                 9.433654646922043E+10,      /* I = 76 */
(PID.TID 0000.0001)                 9.594452469251483E+10,      /* I = 77 */
(PID.TID 0000.0001)                 9.719020454870135E+10,      /* I = 78 */
(PID.TID 0000.0001)                 9.803968493821149E+10,      /* I = 79 */
(PID.TID 0000.0001)                 9.847017339810080E+10,      /* I = 80 */
(PID.TID 0000.0001)                 9.847017339806476E+10,      /* I = 81 */
(PID.TID 0000.0001)                 9.803968493821149E+10,      /* I = 82 */
(PID.TID 0000.0001)                 9.719020454873740E+10,      /* I = 83 */
(PID.TID 0000.0001)                 9.594452469255087E+10,      /* I = 84 */
(PID.TID 0000.0001)                 9.433654646922043E+10,      /* I = 85 */
(PID.TID 0000.0001)                 9.241098780606058E+10,      /* I = 86 */
(PID.TID 0000.0001)                 9.022313873522023E+10,      /* I = 87 */
(PID.TID 0000.0001)                 8.783871201160951E+10,      /* I = 88 */
(PID.TID 0000.0001)                 8.533379325707961E+10,      /* I = 89 */
(PID.TID 0000.0001)                 8.279477205479343E+10,      /* I = 90 */
(PID.TID 0000.0001)                 8.031792520226384E+10,      /* I = 91 */
(PID.TID 0000.0001)                 7.800802871997223E+10,      /* I = 92 */
(PID.TID 0000.0001)                 7.597507578906308E+10,      /* I = 93 */
(PID.TID 0000.0001)                 7.432809861298544E+10,      /* I = 94 */
(PID.TID 0000.0001)                 7.316560555600214E+10,      /* I = 95 */
(PID.TID 0000.0001)                 7.256353271748119E+10,      /* I = 96 */
(PID.TID 0000.0001)                 8.674306976737517E+10,      /* I = 97 */
(PID.TID 0000.0001)                 8.707289939726053E+10,      /* I = 98 */
(PID.TID 0000.0001)                 8.771796996822122E+10,      /* I = 99 */
(PID.TID 0000.0001)                 8.865010184133475E+10,      /* I =100 */
(PID.TID 0000.0001)                 8.982934837778833E+10,      /* I =101 */
(PID.TID 0000.0001)                 9.120636580252011E+10,      /* I =102 */
(PID.TID 0000.0001)                 9.272503093370717E+10,      /* I =103 */
(PID.TID 0000.0001)                 9.432506641773729E+10,      /* I =104 */
(PID.TID 0000.0001)                 9.594452469251483E+10,      /* I =105 */
(PID.TID 0000.0001)                 9.752206662013898E+10,      /* I =106 */
(PID.TID 0000.0001)                 9.899902549681102E+10,      /* I =107 */
(PID.TID 0000.0001)                 1.003212683917232E+11,      /* I =108 */
(PID.TID 0000.0001)                 1.014408632438172E+11,      /* I =109 */
(PID.TID 0000.0001)                 1.023175444268777E+11,      /* I =110 */
(PID.TID 0000.0001)                 1.029199524752013E+11,      /* I =111 */
(PID.TID 0000.0001)                 1.032266241858783E+11,      /* I =112 */
(PID.TID 0000.0001)                 1.032266241858423E+11,      /* I =113 */
(PID.TID 0000.0001)                 1.029199524752373E+11,      /* I =114 */
(PID.TID 0000.0001)                 1.023175444268777E+11,      /* I =115 */
(PID.TID 0000.0001)                 1.014408632438172E+11,      /* I =116 */
(PID.TID 0000.0001)                 1.003212683916871E+11,      /* I =117 */
(PID.TID 0000.0001)                 9.899902549681102E+10,      /* I =118 */
(PID.TID 0000.0001)                 9.752206662017502E+10,      /* I =119 */
(PID.TID 0000.0001)                 9.594452469251483E+10,      /* I =120 */
(PID.TID 0000.0001)                 9.432506641773729E+10,      /* I =121 */
(PID.TID 0000.0001)                 9.272503093367113E+10,      /* I =122 */
(PID.TID 0000.0001)                 9.120636580252011E+10,      /* I =123 */
(PID.TID 0000.0001)                 8.982934837778833E+10,      /* I =124 */
(PID.TID 0000.0001)                 8.865010184129871E+10,      /* I =125 */
(PID.TID 0000.0001)                 8.771796996818518E+10,      /* I =126 */
(PID.TID 0000.0001)                 8.707289939726053E+10,      /* I =127 */
(PID.TID 0000.0001)                 8.674306976737517E+10,      /* I =128 */
(PID.TID 0000.0001)                 9.076111290422060E+10,      /* I =129 */
(PID.TID 0000.0001)                 9.103111035233499E+10,      /* I =130 */
(PID.TID 0000.0001)                 9.156064070993231E+10,      /* I =131 */
(PID.TID 0000.0001)                 9.232920428260213E+10,      /* I =132 */
(PID.TID 0000.0001)                 9.330709899483766E+10,      /* I =133 */
(PID.TID 0000.0001)                 9.445660930090860E+10,      /* I =134 */
(PID.TID 0000.0001)                 9.573349030317511E+10,      /* I =135 */
(PID.TID 0000.0001)                 9.708868016530809E+10,      /* I =136 */
(PID.TID 0000.0001)                 9.847017339806476E+10,      /* I =137 */
(PID.TID 0000.0001)                 9.982498936271980E+10,      /* I =138 */
(PID.TID 0000.0001)                 1.011011716698855E+11,      /* I =139 */
(PID.TID 0000.0001)                 1.022497537646060E+11,      /* I =140 */
(PID.TID 0000.0001)                 1.032266241858423E+11,      /* I =141 */
(PID.TID 0000.0001)                 1.039942233001552E+11,      /* I =142 */
(PID.TID 0000.0001)                 1.045230037451501E+11,      /* I =143 */
(PID.TID 0000.0001)     2 @  1.047926024841940E+11,             /* I =144:145 */
(PID.TID 0000.0001)                 1.045230037451861E+11,      /* I =146 */
(PID.TID 0000.0001)                 1.039942233001552E+11,      /* I =147 */
(PID.TID 0000.0001)                 1.032266241858783E+11,      /* I =148 */
(PID.TID 0000.0001)                 1.022497537646060E+11,      /* I =149 */
(PID.TID 0000.0001)                 1.011011716699215E+11,      /* I =150 */
(PID.TID 0000.0001)                 9.982498936268376E+10,      /* I =151 */
(PID.TID 0000.0001)                 9.847017339806476E+10,      /* I =152 */
(PID.TID 0000.0001)                 9.708868016527205E+10,      /* I =153 */
(PID.TID 0000.0001)                 9.573349030313907E+10,      /* I =154 */
(PID.TID 0000.0001)                 9.445660930090860E+10,      /* I =155 */
(PID.TID 0000.0001)                 9.330709899483766E+10,      /* I =156 */
(PID.TID 0000.0001)                 9.232920428256609E+10,      /* I =157 */
(PID.TID 0000.0001)                 9.156064070993231E+10,      /* I =158 */
(PID.TID 0000.0001)                 9.103111035233499E+10,      /* I =159 */
(PID.TID 0000.0001)                 9.076111290418457E+10,      /* I =160 */
(PID.TID 0000.0001)                 8.410423102799828E+10,      /* I =161 */
(PID.TID 0000.0001)                 8.447677539246103E+10,      /* I =162 */
(PID.TID 0000.0001)                 8.520397184519502E+10,      /* I =163 */
(PID.TID 0000.0001)                 8.625157736320589E+10,      /* I =164 */
(PID.TID 0000.0001)                 8.757174167036623E+10,      /* I =165 */
(PID.TID 0000.0001)                 8.910641714496939E+10,      /* I =166 */
(PID.TID 0000.0001)                 9.079090192400487E+10,      /* I =167 */
(PID.TID 0000.0001)                 9.255713331730203E+10,      /* I =168 */
(PID.TID 0000.0001)                 9.433654646922043E+10,      /* I =169 */
(PID.TID 0000.0001)                 9.606247471973146E+10,      /* I =170 */
(PID.TID 0000.0001)                 9.767215757505988E+10,      /* I =171 */
(PID.TID 0000.0001)                 9.910844509259473E+10,      /* I =172 */
(PID.TID 0000.0001)                 1.003212683917232E+11,      /* I =173 */
(PID.TID 0000.0001)                 1.012689103619959E+11,      /* I =174 */
(PID.TID 0000.0001)                 1.019190764103736E+11,      /* I =175 */
(PID.TID 0000.0001)     2 @  1.022497537646060E+11,             /* I =176:177 */
(PID.TID 0000.0001)                 1.019190764103376E+11,      /* I =178 */
(PID.TID 0000.0001)                 1.012689103619598E+11,      /* I =179 */
(PID.TID 0000.0001)                 1.003212683916871E+11,      /* I =180 */
(PID.TID 0000.0001)                 9.910844509259473E+10,      /* I =181 */
(PID.TID 0000.0001)                 9.767215757505988E+10,      /* I =182 */
(PID.TID 0000.0001)                 9.606247471973146E+10,      /* I =183 */
(PID.TID 0000.0001)                 9.433654646922043E+10,      /* I =184 */
(PID.TID 0000.0001)                 9.255713331730203E+10,      /* I =185 */
(PID.TID 0000.0001)                 9.079090192400487E+10,      /* I =186 */
(PID.TID 0000.0001)                 8.910641714496939E+10,      /* I =187 */
(PID.TID 0000.0001)                 8.757174167036623E+10,      /* I =188 */
(PID.TID 0000.0001)                 8.625157736324193E+10,      /* I =189 */
(PID.TID 0000.0001)                 8.520397184519502E+10,      /* I =190 */
(PID.TID 0000.0001)                 8.447677539246103E+10,      /* I =191 */
(PID.TID 0000.0001)                 8.410423102803432E+10,      /* I =192 */
(PID.TID 0000.0001)                 6.757541173817516E+10,      /* I =193 */
(PID.TID 0000.0001)                 6.830648821282825E+10,      /* I =194 */
(PID.TID 0000.0001)                 6.970852823518779E+10,      /* I =195 */
(PID.TID 0000.0001)                 7.167505933266579E+10,      /* I =196 */
(PID.TID 0000.0001)                 7.407378391965518E+10,      /* I =197 */
(PID.TID 0000.0001)                 7.676559153402333E+10,      /* I =198 */
(PID.TID 0000.0001)                 7.961744142441241E+10,      /* I =199 */
(PID.TID 0000.0001)                 8.250883164798820E+10,      /* I =200 */
(PID.TID 0000.0001)                 8.533379325707961E+10,      /* I =201 */
(PID.TID 0000.0001)                 8.800057596473148E+10,      /* I =202 */
(PID.TID 0000.0001)                 9.043054958589890E+10,      /* I =203 */
(PID.TID 0000.0001)                 9.255713331733807E+10,      /* I =204 */
(PID.TID 0000.0001)                 9.432506641773729E+10,      /* I =205 */
(PID.TID 0000.0001)                 9.569005670076813E+10,      /* I =206 */
(PID.TID 0000.0001)                 9.661871769577347E+10,      /* I =207 */
(PID.TID 0000.0001)     2 @  9.708868016527205E+10,             /* I =208:209 */
(PID.TID 0000.0001)                 9.661871769577347E+10,      /* I =210 */
(PID.TID 0000.0001)                 9.569005670073209E+10,      /* I =211 */
(PID.TID 0000.0001)                 9.432506641773729E+10,      /* I =212 */
(PID.TID 0000.0001)                 9.255713331730203E+10,      /* I =213 */
(PID.TID 0000.0001)                 9.043054958589890E+10,      /* I =214 */
(PID.TID 0000.0001)                 8.800057596473148E+10,      /* I =215 */
(PID.TID 0000.0001)                 8.533379325707961E+10,      /* I =216 */
(PID.TID 0000.0001)                 8.250883164795216E+10,      /* I =217 */
(PID.TID 0000.0001)                 7.961744142437637E+10,      /* I =218 */
(PID.TID 0000.0001)                 7.676559153402333E+10,      /* I =219 */
(PID.TID 0000.0001)                 7.407378391965518E+10,      /* I =220 */
(PID.TID 0000.0001)                 7.167505933266579E+10,      /* I =221 */
(PID.TID 0000.0001)                 6.970852823515175E+10,      /* I =222 */
(PID.TID 0000.0001)                 6.830648821282825E+10,      /* I =223 */
(PID.TID 0000.0001)                 6.757541173817516E+10,      /* I =224 */
(PID.TID 0000.0001)                 4.192037169898667E+10,      /* I =225 */
(PID.TID 0000.0001)                 4.401452325760989E+10,      /* I =226 */
(PID.TID 0000.0001)                 4.766459252985624E+10,      /* I =227 */
(PID.TID 0000.0001)                 5.220923003176699E+10,      /* I =228 */
(PID.TID 0000.0001)                 5.714531235245521E+10,      /* I =229 */
(PID.TID 0000.0001)                 6.215369972930369E+10,      /* I =230 */
(PID.TID 0000.0001)                 6.703877859373658E+10,      /* I =231 */
(PID.TID 0000.0001)                 7.167505933270183E+10,      /* I =232 */
(PID.TID 0000.0001)                 7.597507578906308E+10,      /* I =233 */
(PID.TID 0000.0001)                 7.987235447025922E+10,      /* I =234 */
(PID.TID 0000.0001)                 8.331295262617410E+10,      /* I =235 */
(PID.TID 0000.0001)                 8.625157736324193E+10,      /* I =236 */
(PID.TID 0000.0001)                 8.865010184129871E+10,      /* I =237 */
(PID.TID 0000.0001)                 9.047729707358572E+10,      /* I =238 */
(PID.TID 0000.0001)                 9.170912196569034E+10,      /* I =239 */
(PID.TID 0000.0001)                 9.232920428260213E+10,      /* I =240 */
(PID.TID 0000.0001)                 9.232920428256609E+10,      /* I =241 */
(PID.TID 0000.0001)                 9.170912196569034E+10,      /* I =242 */
(PID.TID 0000.0001)                 9.047729707358572E+10,      /* I =243 */
(PID.TID 0000.0001)                 8.865010184129871E+10,      /* I =244 */
(PID.TID 0000.0001)                 8.625157736324193E+10,      /* I =245 */
(PID.TID 0000.0001)                 8.331295262613806E+10,      /* I =246 */
(PID.TID 0000.0001)                 7.987235447022318E+10,      /* I =247 */
(PID.TID 0000.0001)                 7.597507578906308E+10,      /* I =248 */
(PID.TID 0000.0001)                 7.167505933266579E+10,      /* I =249 */
(PID.TID 0000.0001)                 6.703877859373658E+10,      /* I =250 */
(PID.TID 0000.0001)                 6.215369972933973E+10,      /* I =251 */
(PID.TID 0000.0001)                 5.714531235249125E+10,      /* I =252 */
(PID.TID 0000.0001)                 5.220923003176699E+10,      /* I =253 */
(PID.TID 0000.0001)                 4.766459252985624E+10,      /* I =254 */
(PID.TID 0000.0001)                 4.401452325760989E+10,      /* I =255 */
(PID.TID 0000.0001)                 4.192037169898667E+10,      /* I =256 */
(PID.TID 0000.0001)                 1.401900702255611E+10,      /* I =257 */
(PID.TID 0000.0001)                 2.459906945574446E+10,      /* I =258 */
(PID.TID 0000.0001)                 3.378518544307869E+10,      /* I =259 */
(PID.TID 0000.0001)                 4.192037169898667E+10,      /* I =260 */
(PID.TID 0000.0001)                 4.925938996118163E+10,      /* I =261 */
(PID.TID 0000.0001)                 5.594154126607553E+10,      /* I =262 */
(PID.TID 0000.0001)                 6.203683527772523E+10,      /* I =263 */
(PID.TID 0000.0001)                 6.757541173817516E+10,      /* I =264 */
(PID.TID 0000.0001)                 7.256353271748119E+10,      /* I =265 */
(PID.TID 0000.0001)                 7.699293007098555E+10,      /* I =266 */
(PID.TID 0000.0001)                 8.084683449728902E+10,      /* I =267 */
(PID.TID 0000.0001)                 8.410423102796223E+10,      /* I =268 */
(PID.TID 0000.0001)                 8.674306976737517E+10,      /* I =269 */
(PID.TID 0000.0001)                 8.874277443041928E+10,      /* I =270 */
(PID.TID 0000.0001)                 9.008620045350865E+10,      /* I =271 */
(PID.TID 0000.0001)                 9.076111290418457E+10,      /* I =272 */
(PID.TID 0000.0001)                 9.076111290422060E+10,      /* I =273 */
(PID.TID 0000.0001)                 9.008620045354469E+10,      /* I =274 */
(PID.TID 0000.0001)                 8.874277443041928E+10,      /* I =275 */
(PID.TID 0000.0001)                 8.674306976741121E+10,      /* I =276 */
(PID.TID 0000.0001)                 8.410423102799828E+10,      /* I =277 */
(PID.TID 0000.0001)                 8.084683449728902E+10,      /* I =278 */
(PID.TID 0000.0001)                 7.699293007098555E+10,      /* I =279 */
(PID.TID 0000.0001)                 7.256353271748119E+10,      /* I =280 */
(PID.TID 0000.0001)                 6.757541173817516E+10,      /* I =281 */
(PID.TID 0000.0001)                 6.203683527772523E+10,      /* I =282 */
(PID.TID 0000.0001)                 5.594154126611156E+10,      /* I =283 */
(PID.TID 0000.0001)                 4.925938996118163E+10,      /* I =284 */
(PID.TID 0000.0001)                 4.192037169898667E+10,      /* I =285 */
(PID.TID 0000.0001)                 3.378518544304265E+10,      /* I =286 */
(PID.TID 0000.0001)                 2.459906945574446E+10,      /* I =287 */
(PID.TID 0000.0001)                 1.401900702259215E+10,      /* I =288 */
(PID.TID 0000.0001)                 4.925938996118163E+10,      /* I =289 */
(PID.TID 0000.0001)                 5.077234053174238E+10,      /* I =290 */
(PID.TID 0000.0001)                 5.353037267574563E+10,      /* I =291 */
(PID.TID 0000.0001)                 5.714531235245521E+10,      /* I =292 */
(PID.TID 0000.0001)                 6.125259462314511E+10,      /* I =293 */
(PID.TID 0000.0001)                 6.556931309633417E+10,      /* I =294 */
(PID.TID 0000.0001)                 6.989166670270824E+10,      /* I =295 */
(PID.TID 0000.0001)                 7.407378391965518E+10,      /* I =296 */
(PID.TID 0000.0001)                 7.800802871997223E+10,      /* I =297 */
(PID.TID 0000.0001)                 8.161143484441284E+10,      /* I =298 */
(PID.TID 0000.0001)                 8.481751304090741E+10,      /* I =299 */
(PID.TID 0000.0001)                 8.757174167036623E+10,      /* I =300 */
(PID.TID 0000.0001)                 8.982934837778833E+10,      /* I =301 */
(PID.TID 0000.0001)                 9.155442926157257E+10,      /* I =302 */
(PID.TID 0000.0001)                 9.271978624749503E+10,      /* I =303 */
(PID.TID 0000.0001)     2 @  9.330709899483766E+10,             /* I =304:305 */
(PID.TID 0000.0001)                 9.271978624745898E+10,      /* I =306 */
(PID.TID 0000.0001)                 9.155442926157257E+10,      /* I =307 */
(PID.TID 0000.0001)                 8.982934837778833E+10,      /* I =308 */
(PID.TID 0000.0001)                 8.757174167036623E+10,      /* I =309 */
(PID.TID 0000.0001)                 8.481751304090741E+10,      /* I =310 */
(PID.TID 0000.0001)                 8.161143484437680E+10,      /* I =311 */
(PID.TID 0000.0001)                 7.800802871997223E+10,      /* I =312 */
(PID.TID 0000.0001)                 7.407378391965518E+10,      /* I =313 */
(PID.TID 0000.0001)                 6.989166670270824E+10,      /* I =314 */
(PID.TID 0000.0001)                 6.556931309633417E+10,      /* I =315 */
(PID.TID 0000.0001)                 6.125259462318115E+10,      /* I =316 */
(PID.TID 0000.0001)                 5.714531235245521E+10,      /* I =317 */
(PID.TID 0000.0001)                 5.353037267574563E+10,      /* I =318 */
(PID.TID 0000.0001)                 5.077234053177842E+10,      /* I =319 */
(PID.TID 0000.0001)                 4.925938996118163E+10,      /* I =320 */
(PID.TID 0000.0001)                 7.256353271748119E+10,      /* I =321 */
(PID.TID 0000.0001)                 7.316560555603816E+10,      /* I =322 */
(PID.TID 0000.0001)                 7.432809861291336E+10,      /* I =323 */
(PID.TID 0000.0001)                 7.597507578906308E+10,      /* I =324 */
(PID.TID 0000.0001)                 7.800802871993619E+10,      /* I =325 */
(PID.TID 0000.0001)                 8.031792520226384E+10,      /* I =326 */
(PID.TID 0000.0001)                 8.279477205479343E+10,      /* I =327 */
(PID.TID 0000.0001)                 8.533379325707961E+10,      /* I =328 */
(PID.TID 0000.0001)                 8.783871201160951E+10,      /* I =329 */
(PID.TID 0000.0001)                 9.022313873522023E+10,      /* I =330 */
(PID.TID 0000.0001)                 9.241098780606058E+10,      /* I =331 */
(PID.TID 0000.0001)                 9.433654646922043E+10,      /* I =332 */
(PID.TID 0000.0001)                 9.594452469251483E+10,      /* I =333 */
(PID.TID 0000.0001)                 9.719020454870135E+10,      /* I =334 */
(PID.TID 0000.0001)                 9.803968493821149E+10,      /* I =335 */
(PID.TID 0000.0001)                 9.847017339810080E+10,      /* I =336 */
(PID.TID 0000.0001)                 9.847017339806476E+10,      /* I =337 */
(PID.TID 0000.0001)                 9.803968493821149E+10,      /* I =338 */
(PID.TID 0000.0001)                 9.719020454873740E+10,      /* I =339 */
(PID.TID 0000.0001)                 9.594452469255087E+10,      /* I =340 */
(PID.TID 0000.0001)                 9.433654646922043E+10,      /* I =341 */
(PID.TID 0000.0001)                 9.241098780606058E+10,      /* I =342 */
(PID.TID 0000.0001)                 9.022313873522023E+10,      /* I =343 */
(PID.TID 0000.0001)                 8.783871201160951E+10,      /* I =344 */
(PID.TID 0000.0001)                 8.533379325707961E+10,      /* I =345 */
(PID.TID 0000.0001)                 8.279477205479343E+10,      /* I =346 */
(PID.TID 0000.0001)                 8.031792520226384E+10,      /* I =347 */
(PID.TID 0000.0001)                 7.800802871997223E+10,      /* I =348 */
(PID.TID 0000.0001)                 7.597507578906308E+10,      /* I =349 */
(PID.TID 0000.0001)                 7.432809861298544E+10,      /* I =350 */
(PID.TID 0000.0001)                 7.316560555600214E+10,      /* I =351 */
(PID.TID 0000.0001)                 7.256353271748119E+10,      /* I =352 */
(PID.TID 0000.0001)                 8.674306976737517E+10,      /* I =353 */
(PID.TID 0000.0001)                 8.707289939726053E+10,      /* I =354 */
(PID.TID 0000.0001)                 8.771796996822122E+10,      /* I =355 */
(PID.TID 0000.0001)                 8.865010184133475E+10,      /* I =356 */
(PID.TID 0000.0001)                 8.982934837778833E+10,      /* I =357 */
(PID.TID 0000.0001)                 9.120636580252011E+10,      /* I =358 */
(PID.TID 0000.0001)                 9.272503093370717E+10,      /* I =359 */
(PID.TID 0000.0001)                 9.432506641773729E+10,      /* I =360 */
(PID.TID 0000.0001)                 9.594452469251483E+10,      /* I =361 */
(PID.TID 0000.0001)                 9.752206662013898E+10,      /* I =362 */
(PID.TID 0000.0001)                 9.899902549681102E+10,      /* I =363 */
(PID.TID 0000.0001)                 1.003212683917232E+11,      /* I =364 */
(PID.TID 0000.0001)                 1.014408632438172E+11,      /* I =365 */
(PID.TID 0000.0001)                 1.023175444268777E+11,      /* I =366 */
(PID.TID 0000.0001)                 1.029199524752013E+11,      /* I =367 */
(PID.TID 0000.0001)                 1.032266241858783E+11,      /* I =368 */
(PID.TID 0000.0001)                 1.032266241858423E+11,      /* I =369 */
(PID.TID 0000.0001)                 1.029199524752373E+11,      /* I =370 */
(PID.TID 0000.0001)                 1.023175444268777E+11,      /* I =371 */
(PID.TID 0000.0001)                 1.014408632438172E+11,      /* I =372 */
(PID.TID 0000.0001)                 1.003212683916871E+11,      /* I =373 */
(PID.TID 0000.0001)                 9.899902549681102E+10,      /* I =374 */
(PID.TID 0000.0001)                 9.752206662017502E+10,      /* I =375 */
(PID.TID 0000.0001)                 9.594452469251483E+10,      /* I =376 */
(PID.TID 0000.0001)                 9.432506641773729E+10,      /* I =377 */
(PID.TID 0000.0001)                 9.272503093367113E+10,      /* I =378 */
(PID.TID 0000.0001)                 9.120636580252011E+10,      /* I =379 */
(PID.TID 0000.0001)                 8.982934837778833E+10,      /* I =380 */
(PID.TID 0000.0001)                 8.865010184129871E+10,      /* I =381 */
(PID.TID 0000.0001)                 8.771796996818518E+10,      /* I =382 */
(PID.TID 0000.0001)                 8.707289939726053E+10,      /* I =383 */
(PID.TID 0000.0001)                 8.674306976737517E+10,      /* I =384 */
(PID.TID 0000.0001)                 9.076111290422060E+10,      /* I =385 */
(PID.TID 0000.0001)                 9.103111035233499E+10,      /* I =386 */
(PID.TID 0000.0001)                 9.156064070993231E+10,      /* I =387 */
(PID.TID 0000.0001)                 9.232920428260213E+10,      /* I =388 */
(PID.TID 0000.0001)                 9.330709899483766E+10,      /* I =389 */
(PID.TID 0000.0001)                 9.445660930090860E+10,      /* I =390 */
(PID.TID 0000.0001)                 9.573349030317511E+10,      /* I =391 */
(PID.TID 0000.0001)                 9.708868016530809E+10,      /* I =392 */
(PID.TID 0000.0001)                 9.847017339806476E+10,      /* I =393 */
(PID.TID 0000.0001)                 9.982498936271980E+10,      /* I =394 */
(PID.TID 0000.0001)                 1.011011716698855E+11,      /* I =395 */
(PID.TID 0000.0001)                 1.022497537646060E+11,      /* I =396 */
(PID.TID 0000.0001)                 1.032266241858423E+11,      /* I =397 */
(PID.TID 0000.0001)                 1.039942233001552E+11,      /* I =398 */
(PID.TID 0000.0001)                 1.045230037451501E+11,      /* I =399 */
(PID.TID 0000.0001)     2 @  1.047926024841940E+11,             /* I =400:401 */
(PID.TID 0000.0001)                 1.045230037451861E+11,      /* I =402 */
(PID.TID 0000.0001)                 1.039942233001552E+11,      /* I =403 */
(PID.TID 0000.0001)                 1.032266241858783E+11,      /* I =404 */
(PID.TID 0000.0001)                 1.022497537646060E+11,      /* I =405 */
(PID.TID 0000.0001)                 1.011011716699215E+11,      /* I =406 */
(PID.TID 0000.0001)                 9.982498936268376E+10,      /* I =407 */
(PID.TID 0000.0001)                 9.847017339806476E+10,      /* I =408 */
(PID.TID 0000.0001)                 9.708868016527205E+10,      /* I =409 */
(PID.TID 0000.0001)                 9.573349030313907E+10,      /* I =410 */
(PID.TID 0000.0001)                 9.445660930090860E+10,      /* I =411 */
(PID.TID 0000.0001)                 9.330709899483766E+10,      /* I =412 */
(PID.TID 0000.0001)                 9.232920428256609E+10,      /* I =413 */
(PID.TID 0000.0001)                 9.156064070993231E+10,      /* I =414 */
(PID.TID 0000.0001)                 9.103111035233499E+10,      /* I =415 */
(PID.TID 0000.0001)                 9.076111290418457E+10,      /* I =416 */
(PID.TID 0000.0001)                 8.410423102799828E+10,      /* I =417 */
(PID.TID 0000.0001)                 8.447677539246103E+10,      /* I =418 */
(PID.TID 0000.0001)                 8.520397184519502E+10,      /* I =419 */
(PID.TID 0000.0001)                 8.625157736320589E+10,      /* I =420 */
(PID.TID 0000.0001)                 8.757174167036623E+10,      /* I =421 */
(PID.TID 0000.0001)                 8.910641714496939E+10,      /* I =422 */
(PID.TID 0000.0001)                 9.079090192400487E+10,      /* I =423 */
(PID.TID 0000.0001)                 9.255713331730203E+10,      /* I =424 */
(PID.TID 0000.0001)                 9.433654646922043E+10,      /* I =425 */
(PID.TID 0000.0001)                 9.606247471973146E+10,      /* I =426 */
(PID.TID 0000.0001)                 9.767215757505988E+10,      /* I =427 */
(PID.TID 0000.0001)                 9.910844509259473E+10,      /* I =428 */
(PID.TID 0000.0001)                 1.003212683917232E+11,      /* I =429 */
(PID.TID 0000.0001)                 1.012689103619959E+11,      /* I =430 */
(PID.TID 0000.0001)                 1.019190764103736E+11,      /* I =431 */
(PID.TID 0000.0001)     2 @  1.022497537646060E+11,             /* I =432:433 */
(PID.TID 0000.0001)                 1.019190764103376E+11,      /* I =434 */
(PID.TID 0000.0001)                 1.012689103619598E+11,      /* I =435 */
(PID.TID 0000.0001)                 1.003212683916871E+11,      /* I =436 */
(PID.TID 0000.0001)                 9.910844509259473E+10,      /* I =437 */
(PID.TID 0000.0001)                 9.767215757505988E+10,      /* I =438 */
(PID.TID 0000.0001)                 9.606247471973146E+10,      /* I =439 */
(PID.TID 0000.0001)                 9.433654646922043E+10,      /* I =440 */
(PID.TID 0000.0001)                 9.255713331730203E+10,      /* I =441 */
(PID.TID 0000.0001)                 9.079090192400487E+10,      /* I =442 */
(PID.TID 0000.0001)                 8.910641714496939E+10,      /* I =443 */
(PID.TID 0000.0001)                 8.757174167036623E+10,      /* I =444 */
(PID.TID 0000.0001)                 8.625157736324193E+10,      /* I =445 */
(PID.TID 0000.0001)                 8.520397184519502E+10,      /* I =446 */
(PID.TID 0000.0001)                 8.447677539246103E+10,      /* I =447 */
(PID.TID 0000.0001)                 8.410423102803432E+10,      /* I =448 */
(PID.TID 0000.0001)                 6.757541173817516E+10,      /* I =449 */
(PID.TID 0000.0001)                 6.830648821282825E+10,      /* I =450 */
(PID.TID 0000.0001)                 6.970852823518779E+10,      /* I =451 */
(PID.TID 0000.0001)                 7.167505933266579E+10,      /* I =452 */
(PID.TID 0000.0001)                 7.407378391965518E+10,      /* I =453 */
(PID.TID 0000.0001)                 7.676559153402333E+10,      /* I =454 */
(PID.TID 0000.0001)                 7.961744142441241E+10,      /* I =455 */
(PID.TID 0000.0001)                 8.250883164798820E+10,      /* I =456 */
(PID.TID 0000.0001)                 8.533379325707961E+10,      /* I =457 */
(PID.TID 0000.0001)                 8.800057596473148E+10,      /* I =458 */
(PID.TID 0000.0001)                 9.043054958589890E+10,      /* I =459 */
(PID.TID 0000.0001)                 9.255713331733807E+10,      /* I =460 */
(PID.TID 0000.0001)                 9.432506641773729E+10,      /* I =461 */
(PID.TID 0000.0001)                 9.569005670076813E+10,      /* I =462 */
(PID.TID 0000.0001)                 9.661871769577347E+10,      /* I =463 */
(PID.TID 0000.0001)     2 @  9.708868016527205E+10,             /* I =464:465 */
(PID.TID 0000.0001)                 9.661871769577347E+10,      /* I =466 */
(PID.TID 0000.0001)                 9.569005670073209E+10,      /* I =467 */
(PID.TID 0000.0001)                 9.432506641773729E+10,      /* I =468 */
(PID.TID 0000.0001)                 9.255713331730203E+10,      /* I =469 */
(PID.TID 0000.0001)                 9.043054958589890E+10,      /* I =470 */
(PID.TID 0000.0001)                 8.800057596473148E+10,      /* I =471 */
(PID.TID 0000.0001)                 8.533379325707961E+10,      /* I =472 */
(PID.TID 0000.0001)                 8.250883164795216E+10,      /* I =473 */
(PID.TID 0000.0001)                 7.961744142437637E+10,      /* I =474 */
(PID.TID 0000.0001)                 7.676559153402333E+10,      /* I =475 */
(PID.TID 0000.0001)                 7.407378391965518E+10,      /* I =476 */
(PID.TID 0000.0001)                 7.167505933266579E+10,      /* I =477 */
(PID.TID 0000.0001)                 6.970852823515175E+10,      /* I =478 */
(PID.TID 0000.0001)                 6.830648821282825E+10,      /* I =479 */
(PID.TID 0000.0001)                 6.757541173817516E+10,      /* I =480 */
(PID.TID 0000.0001)                 4.192037169898667E+10,      /* I =481 */
(PID.TID 0000.0001)                 4.401452325760989E+10,      /* I =482 */
(PID.TID 0000.0001)                 4.766459252985624E+10,      /* I =483 */
(PID.TID 0000.0001)                 5.220923003176699E+10,      /* I =484 */
(PID.TID 0000.0001)                 5.714531235245521E+10,      /* I =485 */
(PID.TID 0000.0001)                 6.215369972930369E+10,      /* I =486 */
(PID.TID 0000.0001)                 6.703877859373658E+10,      /* I =487 */
(PID.TID 0000.0001)                 7.167505933270183E+10,      /* I =488 */
(PID.TID 0000.0001)                 7.597507578906308E+10,      /* I =489 */
(PID.TID 0000.0001)                 7.987235447025922E+10,      /* I =490 */
(PID.TID 0000.0001)                 8.331295262617410E+10,      /* I =491 */
(PID.TID 0000.0001)                 8.625157736324193E+10,      /* I =492 */
(PID.TID 0000.0001)                 8.865010184129871E+10,      /* I =493 */
(PID.TID 0000.0001)                 9.047729707358572E+10,      /* I =494 */
(PID.TID 0000.0001)                 9.170912196569034E+10,      /* I =495 */
(PID.TID 0000.0001)                 9.232920428260213E+10,      /* I =496 */
(PID.TID 0000.0001)                 9.232920428256609E+10,      /* I =497 */
(PID.TID 0000.0001)                 9.170912196569034E+10,      /* I =498 */
(PID.TID 0000.0001)                 9.047729707358572E+10,      /* I =499 */
(PID.TID 0000.0001)                 8.865010184129871E+10,      /* I =500 */
(PID.TID 0000.0001)                 8.625157736324193E+10,      /* I =501 */
(PID.TID 0000.0001)                 8.331295262613806E+10,      /* I =502 */
(PID.TID 0000.0001)                 7.987235447022318E+10,      /* I =503 */
(PID.TID 0000.0001)                 7.597507578906308E+10,      /* I =504 */
(PID.TID 0000.0001)                 7.167505933266579E+10,      /* I =505 */
(PID.TID 0000.0001)                 6.703877859373658E+10,      /* I =506 */
(PID.TID 0000.0001)                 6.215369972933973E+10,      /* I =507 */
(PID.TID 0000.0001)                 5.714531235249125E+10,      /* I =508 */
(PID.TID 0000.0001)                 5.220923003176699E+10,      /* I =509 */
(PID.TID 0000.0001)                 4.766459252985624E+10,      /* I =510 */
(PID.TID 0000.0001)                 4.401452325760989E+10,      /* I =511 */
(PID.TID 0000.0001)                 4.192037169898667E+10,      /* I =512 */
(PID.TID 0000.0001)                 1.401900702255611E+10,      /* I =513 */
(PID.TID 0000.0001)                 2.459906945574446E+10,      /* I =514 */
(PID.TID 0000.0001)                 3.378518544307869E+10,      /* I =515 */
(PID.TID 0000.0001)                 4.192037169898667E+10,      /* I =516 */
(PID.TID 0000.0001)                 4.925938996118163E+10,      /* I =517 */
(PID.TID 0000.0001)                 5.594154126607553E+10,      /* I =518 */
(PID.TID 0000.0001)                 6.203683527772523E+10,      /* I =519 */
(PID.TID 0000.0001)                 6.757541173817516E+10,      /* I =520 */
(PID.TID 0000.0001)                 7.256353271748119E+10,      /* I =521 */
(PID.TID 0000.0001)                 7.699293007098555E+10,      /* I =522 */
(PID.TID 0000.0001)                 8.084683449728902E+10,      /* I =523 */
(PID.TID 0000.0001)                 8.410423102796223E+10,      /* I =524 */
(PID.TID 0000.0001)                 8.674306976737517E+10,      /* I =525 */
(PID.TID 0000.0001)                 8.874277443041928E+10,      /* I =526 */
(PID.TID 0000.0001)                 9.008620045350865E+10,      /* I =527 */
(PID.TID 0000.0001)                 9.076111290418457E+10,      /* I =528 */
(PID.TID 0000.0001)                 9.076111290422060E+10,      /* I =529 */
(PID.TID 0000.0001)                 9.008620045354469E+10,      /* I =530 */
(PID.TID 0000.0001)                 8.874277443041928E+10,      /* I =531 */
(PID.TID 0000.0001)                 8.674306976741121E+10,      /* I =532 */
(PID.TID 0000.0001)                 8.410423102799828E+10,      /* I =533 */
(PID.TID 0000.0001)                 8.084683449728902E+10,      /* I =534 */
(PID.TID 0000.0001)                 7.699293007098555E+10,      /* I =535 */
(PID.TID 0000.0001)                 7.256353271748119E+10,      /* I =536 */
(PID.TID 0000.0001)                 6.757541173817516E+10,      /* I =537 */
(PID.TID 0000.0001)                 6.203683527772523E+10,      /* I =538 */
(PID.TID 0000.0001)                 5.594154126611156E+10,      /* I =539 */
(PID.TID 0000.0001)                 4.925938996118163E+10,      /* I =540 */
(PID.TID 0000.0001)                 4.192037169898667E+10,      /* I =541 */
(PID.TID 0000.0001)                 3.378518544304265E+10,      /* I =542 */
(PID.TID 0000.0001)                 2.459906945574446E+10,      /* I =543 */
(PID.TID 0000.0001)                 1.401900702259215E+10,      /* I =544 */
(PID.TID 0000.0001)                 4.925938996118163E+10,      /* I =545 */
(PID.TID 0000.0001)                 5.077234053174238E+10,      /* I =546 */
(PID.TID 0000.0001)                 5.353037267574563E+10,      /* I =547 */
(PID.TID 0000.0001)                 5.714531235245521E+10,      /* I =548 */
(PID.TID 0000.0001)                 6.125259462314511E+10,      /* I =549 */
(PID.TID 0000.0001)                 6.556931309633417E+10,      /* I =550 */
(PID.TID 0000.0001)                 6.989166670270824E+10,      /* I =551 */
(PID.TID 0000.0001)                 7.407378391965518E+10,      /* I =552 */
(PID.TID 0000.0001)                 7.800802871997223E+10,      /* I =553 */
(PID.TID 0000.0001)                 8.161143484441284E+10,      /* I =554 */
(PID.TID 0000.0001)                 8.481751304090741E+10,      /* I =555 */
(PID.TID 0000.0001)                 8.757174167036623E+10,      /* I =556 */
(PID.TID 0000.0001)                 8.982934837778833E+10,      /* I =557 */
(PID.TID 0000.0001)                 9.155442926157257E+10,      /* I =558 */
(PID.TID 0000.0001)                 9.271978624749503E+10,      /* I =559 */
(PID.TID 0000.0001)     2 @  9.330709899483766E+10,             /* I =560:561 */
(PID.TID 0000.0001)                 9.271978624745898E+10,      /* I =562 */
(PID.TID 0000.0001)                 9.155442926157257E+10,      /* I =563 */
(PID.TID 0000.0001)                 8.982934837778833E+10,      /* I =564 */
(PID.TID 0000.0001)                 8.757174167036623E+10,      /* I =565 */
(PID.TID 0000.0001)                 8.481751304090741E+10,      /* I =566 */
(PID.TID 0000.0001)                 8.161143484437680E+10,      /* I =567 */
(PID.TID 0000.0001)                 7.800802871997223E+10,      /* I =568 */
(PID.TID 0000.0001)                 7.407378391965518E+10,      /* I =569 */
(PID.TID 0000.0001)                 6.989166670270824E+10,      /* I =570 */
(PID.TID 0000.0001)                 6.556931309633417E+10,      /* I =571 */
(PID.TID 0000.0001)                 6.125259462318115E+10,      /* I =572 */
(PID.TID 0000.0001)                 5.714531235245521E+10,      /* I =573 */
(PID.TID 0000.0001)                 5.353037267574563E+10,      /* I =574 */
(PID.TID 0000.0001)                 5.077234053177842E+10,      /* I =575 */
(PID.TID 0000.0001)                 4.925938996118163E+10,      /* I =576 */
(PID.TID 0000.0001)                 7.256353271748119E+10,      /* I =577 */
(PID.TID 0000.0001)                 7.316560555603816E+10,      /* I =578 */
(PID.TID 0000.0001)                 7.432809861291336E+10,      /* I =579 */
(PID.TID 0000.0001)                 7.597507578906308E+10,      /* I =580 */
(PID.TID 0000.0001)                 7.800802871993619E+10,      /* I =581 */
(PID.TID 0000.0001)                 8.031792520226384E+10,      /* I =582 */
(PID.TID 0000.0001)                 8.279477205479343E+10,      /* I =583 */
(PID.TID 0000.0001)                 8.533379325707961E+10,      /* I =584 */
(PID.TID 0000.0001)                 8.783871201160951E+10,      /* I =585 */
(PID.TID 0000.0001)                 9.022313873522023E+10,      /* I =586 */
(PID.TID 0000.0001)                 9.241098780606058E+10,      /* I =587 */
(PID.TID 0000.0001)                 9.433654646922043E+10,      /* I =588 */
(PID.TID 0000.0001)                 9.594452469251483E+10,      /* I =589 */
(PID.TID 0000.0001)                 9.719020454870135E+10,      /* I =590 */
(PID.TID 0000.0001)                 9.803968493821149E+10,      /* I =591 */
(PID.TID 0000.0001)                 9.847017339810080E+10,      /* I =592 */
(PID.TID 0000.0001)                 9.847017339806476E+10,      /* I =593 */
(PID.TID 0000.0001)                 9.803968493821149E+10,      /* I =594 */
(PID.TID 0000.0001)                 9.719020454873740E+10,      /* I =595 */
(PID.TID 0000.0001)                 9.594452469255087E+10,      /* I =596 */
(PID.TID 0000.0001)                 9.433654646922043E+10,      /* I =597 */
(PID.TID 0000.0001)                 9.241098780606058E+10,      /* I =598 */
(PID.TID 0000.0001)                 9.022313873522023E+10,      /* I =599 */
(PID.TID 0000.0001)                 8.783871201160951E+10,      /* I =600 */
(PID.TID 0000.0001)                 8.533379325707961E+10,      /* I =601 */
(PID.TID 0000.0001)                 8.279477205479343E+10,      /* I =602 */
(PID.TID 0000.0001)                 8.031792520226384E+10,      /* I =603 */
(PID.TID 0000.0001)                 7.800802871997223E+10,      /* I =604 */
(PID.TID 0000.0001)                 7.597507578906308E+10,      /* I =605 */
(PID.TID 0000.0001)                 7.432809861298544E+10,      /* I =606 */
(PID.TID 0000.0001)                 7.316560555600214E+10,      /* I =607 */
(PID.TID 0000.0001)                 7.256353271748119E+10,      /* I =608 */
(PID.TID 0000.0001)                 8.674306976737517E+10,      /* I =609 */
(PID.TID 0000.0001)                 8.707289939726053E+10,      /* I =610 */
(PID.TID 0000.0001)                 8.771796996822122E+10,      /* I =611 */
(PID.TID 0000.0001)                 8.865010184133475E+10,      /* I =612 */
(PID.TID 0000.0001)                 8.982934837778833E+10,      /* I =613 */
(PID.TID 0000.0001)                 9.120636580252011E+10,      /* I =614 */
(PID.TID 0000.0001)                 9.272503093370717E+10,      /* I =615 */
(PID.TID 0000.0001)                 9.432506641773729E+10,      /* I =616 */
(PID.TID 0000.0001)                 9.594452469251483E+10,      /* I =617 */
(PID.TID 0000.0001)                 9.752206662013898E+10,      /* I =618 */
(PID.TID 0000.0001)                 9.899902549681102E+10,      /* I =619 */
(PID.TID 0000.0001)                 1.003212683917232E+11,      /* I =620 */
(PID.TID 0000.0001)                 1.014408632438172E+11,      /* I =621 */
(PID.TID 0000.0001)                 1.023175444268777E+11,      /* I =622 */
(PID.TID 0000.0001)                 1.029199524752013E+11,      /* I =623 */
(PID.TID 0000.0001)                 1.032266241858783E+11,      /* I =624 */
(PID.TID 0000.0001)                 1.032266241858423E+11,      /* I =625 */
(PID.TID 0000.0001)                 1.029199524752373E+11,      /* I =626 */
(PID.TID 0000.0001)                 1.023175444268777E+11,      /* I =627 */
(PID.TID 0000.0001)                 1.014408632438172E+11,      /* I =628 */
(PID.TID 0000.0001)                 1.003212683916871E+11,      /* I =629 */
(PID.TID 0000.0001)                 9.899902549681102E+10,      /* I =630 */
(PID.TID 0000.0001)                 9.752206662017502E+10,      /* I =631 */
(PID.TID 0000.0001)                 9.594452469251483E+10,      /* I =632 */
(PID.TID 0000.0001)                 9.432506641773729E+10,      /* I =633 */
(PID.TID 0000.0001)                 9.272503093367113E+10,      /* I =634 */
(PID.TID 0000.0001)                 9.120636580252011E+10,      /* I =635 */
(PID.TID 0000.0001)                 8.982934837778833E+10,      /* I =636 */
(PID.TID 0000.0001)                 8.865010184129871E+10,      /* I =637 */
(PID.TID 0000.0001)                 8.771796996818518E+10,      /* I =638 */
(PID.TID 0000.0001)                 8.707289939726053E+10,      /* I =639 */
(PID.TID 0000.0001)                 8.674306976737517E+10,      /* I =640 */
(PID.TID 0000.0001)                 9.076111290422060E+10,      /* I =641 */
(PID.TID 0000.0001)                 9.103111035233499E+10,      /* I =642 */
(PID.TID 0000.0001)                 9.156064070993231E+10,      /* I =643 */
(PID.TID 0000.0001)                 9.232920428260213E+10,      /* I =644 */
(PID.TID 0000.0001)                 9.330709899483766E+10,      /* I =645 */
(PID.TID 0000.0001)                 9.445660930090860E+10,      /* I =646 */
(PID.TID 0000.0001)                 9.573349030317511E+10,      /* I =647 */
(PID.TID 0000.0001)                 9.708868016530809E+10,      /* I =648 */
(PID.TID 0000.0001)                 9.847017339806476E+10,      /* I =649 */
(PID.TID 0000.0001)                 9.982498936271980E+10,      /* I =650 */
(PID.TID 0000.0001)                 1.011011716698855E+11,      /* I =651 */
(PID.TID 0000.0001)                 1.022497537646060E+11,      /* I =652 */
(PID.TID 0000.0001)                 1.032266241858423E+11,      /* I =653 */
(PID.TID 0000.0001)                 1.039942233001552E+11,      /* I =654 */
(PID.TID 0000.0001)                 1.045230037451501E+11,      /* I =655 */
(PID.TID 0000.0001)     2 @  1.047926024841940E+11,             /* I =656:657 */
(PID.TID 0000.0001)                 1.045230037451861E+11,      /* I =658 */
(PID.TID 0000.0001)                 1.039942233001552E+11,      /* I =659 */
(PID.TID 0000.0001)                 1.032266241858783E+11,      /* I =660 */
(PID.TID 0000.0001)                 1.022497537646060E+11,      /* I =661 */
(PID.TID 0000.0001)                 1.011011716699215E+11,      /* I =662 */
(PID.TID 0000.0001)                 9.982498936268376E+10,      /* I =663 */
(PID.TID 0000.0001)                 9.847017339806476E+10,      /* I =664 */
(PID.TID 0000.0001)                 9.708868016527205E+10,      /* I =665 */
(PID.TID 0000.0001)                 9.573349030313907E+10,      /* I =666 */
(PID.TID 0000.0001)                 9.445660930090860E+10,      /* I =667 */
(PID.TID 0000.0001)                 9.330709899483766E+10,      /* I =668 */
(PID.TID 0000.0001)                 9.232920428256609E+10,      /* I =669 */
(PID.TID 0000.0001)                 9.156064070993231E+10,      /* I =670 */
(PID.TID 0000.0001)                 9.103111035233499E+10,      /* I =671 */
(PID.TID 0000.0001)                 9.076111290418457E+10,      /* I =672 */
(PID.TID 0000.0001)                 8.410423102799828E+10,      /* I =673 */
(PID.TID 0000.0001)                 8.447677539246103E+10,      /* I =674 */
(PID.TID 0000.0001)                 8.520397184519502E+10,      /* I =675 */
(PID.TID 0000.0001)                 8.625157736320589E+10,      /* I =676 */
(PID.TID 0000.0001)                 8.757174167036623E+10,      /* I =677 */
(PID.TID 0000.0001)                 8.910641714496939E+10,      /* I =678 */
(PID.TID 0000.0001)                 9.079090192400487E+10,      /* I =679 */
(PID.TID 0000.0001)                 9.255713331730203E+10,      /* I =680 */
(PID.TID 0000.0001)                 9.433654646922043E+10,      /* I =681 */
(PID.TID 0000.0001)                 9.606247471973146E+10,      /* I =682 */
(PID.TID 0000.0001)                 9.767215757505988E+10,      /* I =683 */
(PID.TID 0000.0001)                 9.910844509259473E+10,      /* I =684 */
(PID.TID 0000.0001)                 1.003212683917232E+11,      /* I =685 */
(PID.TID 0000.0001)                 1.012689103619959E+11,      /* I =686 */
(PID.TID 0000.0001)                 1.019190764103736E+11,      /* I =687 */
(PID.TID 0000.0001)     2 @  1.022497537646060E+11,             /* I =688:689 */
(PID.TID 0000.0001)                 1.019190764103376E+11,      /* I =690 */
(PID.TID 0000.0001)                 1.012689103619598E+11,      /* I =691 */
(PID.TID 0000.0001)                 1.003212683916871E+11,      /* I =692 */
(PID.TID 0000.0001)                 9.910844509259473E+10,      /* I =693 */
(PID.TID 0000.0001)                 9.767215757505988E+10,      /* I =694 */
(PID.TID 0000.0001)                 9.606247471973146E+10,      /* I =695 */
(PID.TID 0000.0001)                 9.433654646922043E+10,      /* I =696 */
(PID.TID 0000.0001)                 9.255713331730203E+10,      /* I =697 */
(PID.TID 0000.0001)                 9.079090192400487E+10,      /* I =698 */
(PID.TID 0000.0001)                 8.910641714496939E+10,      /* I =699 */
(PID.TID 0000.0001)                 8.757174167036623E+10,      /* I =700 */
(PID.TID 0000.0001)                 8.625157736324193E+10,      /* I =701 */
(PID.TID 0000.0001)                 8.520397184519502E+10,      /* I =702 */
(PID.TID 0000.0001)                 8.447677539246103E+10,      /* I =703 */
(PID.TID 0000.0001)                 8.410423102803432E+10,      /* I =704 */
(PID.TID 0000.0001)                 6.757541173817516E+10,      /* I =705 */
(PID.TID 0000.0001)                 6.830648821282825E+10,      /* I =706 */
(PID.TID 0000.0001)                 6.970852823518779E+10,      /* I =707 */
(PID.TID 0000.0001)                 7.167505933266579E+10,      /* I =708 */
(PID.TID 0000.0001)                 7.407378391965518E+10,      /* I =709 */
(PID.TID 0000.0001)                 7.676559153402333E+10,      /* I =710 */
(PID.TID 0000.0001)                 7.961744142441241E+10,      /* I =711 */
(PID.TID 0000.0001)                 8.250883164798820E+10,      /* I =712 */
(PID.TID 0000.0001)                 8.533379325707961E+10,      /* I =713 */
(PID.TID 0000.0001)                 8.800057596473148E+10,      /* I =714 */
(PID.TID 0000.0001)                 9.043054958589890E+10,      /* I =715 */
(PID.TID 0000.0001)                 9.255713331733807E+10,      /* I =716 */
(PID.TID 0000.0001)                 9.432506641773729E+10,      /* I =717 */
(PID.TID 0000.0001)                 9.569005670076813E+10,      /* I =718 */
(PID.TID 0000.0001)                 9.661871769577347E+10,      /* I =719 */
(PID.TID 0000.0001)     2 @  9.708868016527205E+10,             /* I =720:721 */
(PID.TID 0000.0001)                 9.661871769577347E+10,      /* I =722 */
(PID.TID 0000.0001)                 9.569005670073209E+10,      /* I =723 */
(PID.TID 0000.0001)                 9.432506641773729E+10,      /* I =724 */
(PID.TID 0000.0001)                 9.255713331730203E+10,      /* I =725 */
(PID.TID 0000.0001)                 9.043054958589890E+10,      /* I =726 */
(PID.TID 0000.0001)                 8.800057596473148E+10,      /* I =727 */
(PID.TID 0000.0001)                 8.533379325707961E+10,      /* I =728 */
(PID.TID 0000.0001)                 8.250883164795216E+10,      /* I =729 */
(PID.TID 0000.0001)                 7.961744142437637E+10,      /* I =730 */
(PID.TID 0000.0001)                 7.676559153402333E+10,      /* I =731 */
(PID.TID 0000.0001)                 7.407378391965518E+10,      /* I =732 */
(PID.TID 0000.0001)                 7.167505933266579E+10,      /* I =733 */
(PID.TID 0000.0001)                 6.970852823515175E+10,      /* I =734 */
(PID.TID 0000.0001)                 6.830648821282825E+10,      /* I =735 */
(PID.TID 0000.0001)                 6.757541173817516E+10,      /* I =736 */
(PID.TID 0000.0001)                 4.192037169898667E+10,      /* I =737 */
(PID.TID 0000.0001)                 4.401452325760989E+10,      /* I =738 */
(PID.TID 0000.0001)                 4.766459252985624E+10,      /* I =739 */
(PID.TID 0000.0001)                 5.220923003176699E+10,      /* I =740 */
(PID.TID 0000.0001)                 5.714531235245521E+10,      /* I =741 */
(PID.TID 0000.0001)                 6.215369972930369E+10,      /* I =742 */
(PID.TID 0000.0001)                 6.703877859373658E+10,      /* I =743 */
(PID.TID 0000.0001)                 7.167505933270183E+10,      /* I =744 */
(PID.TID 0000.0001)                 7.597507578906308E+10,      /* I =745 */
(PID.TID 0000.0001)                 7.987235447025922E+10,      /* I =746 */
(PID.TID 0000.0001)                 8.331295262617410E+10,      /* I =747 */
(PID.TID 0000.0001)                 8.625157736324193E+10,      /* I =748 */
(PID.TID 0000.0001)                 8.865010184129871E+10,      /* I =749 */
(PID.TID 0000.0001)                 9.047729707358572E+10,      /* I =750 */
(PID.TID 0000.0001)                 9.170912196569034E+10,      /* I =751 */
(PID.TID 0000.0001)                 9.232920428260213E+10,      /* I =752 */
(PID.TID 0000.0001)                 9.232920428256609E+10,      /* I =753 */
(PID.TID 0000.0001)                 9.170912196569034E+10,      /* I =754 */
(PID.TID 0000.0001)                 9.047729707358572E+10,      /* I =755 */
(PID.TID 0000.0001)                 8.865010184129871E+10,      /* I =756 */
(PID.TID 0000.0001)                 8.625157736324193E+10,      /* I =757 */
(PID.TID 0000.0001)                 8.331295262613806E+10,      /* I =758 */
(PID.TID 0000.0001)                 7.987235447022318E+10,      /* I =759 */
(PID.TID 0000.0001)                 7.597507578906308E+10,      /* I =760 */
(PID.TID 0000.0001)                 7.167505933266579E+10,      /* I =761 */
(PID.TID 0000.0001)                 6.703877859373658E+10,      /* I =762 */
(PID.TID 0000.0001)                 6.215369972933973E+10,      /* I =763 */
(PID.TID 0000.0001)                 5.714531235249125E+10,      /* I =764 */
(PID.TID 0000.0001)                 5.220923003176699E+10,      /* I =765 */
(PID.TID 0000.0001)                 4.766459252985624E+10,      /* I =766 */
(PID.TID 0000.0001)                 4.401452325760989E+10,      /* I =767 */
(PID.TID 0000.0001)                 4.192037169898667E+10,      /* I =768 */
(PID.TID 0000.0001)                 1.401900702255611E+10,      /* I =769 */
(PID.TID 0000.0001)                 2.459906945574446E+10,      /* I =770 */
(PID.TID 0000.0001)                 3.378518544307869E+10,      /* I =771 */
(PID.TID 0000.0001)                 4.192037169898667E+10,      /* I =772 */
(PID.TID 0000.0001)                 4.925938996118163E+10,      /* I =773 */
(PID.TID 0000.0001)                 5.594154126607553E+10,      /* I =774 */
(PID.TID 0000.0001)                 6.203683527772523E+10,      /* I =775 */
(PID.TID 0000.0001)                 6.757541173817516E+10,      /* I =776 */
(PID.TID 0000.0001)                 7.256353271748119E+10,      /* I =777 */
(PID.TID 0000.0001)                 7.699293007098555E+10,      /* I =778 */
(PID.TID 0000.0001)                 8.084683449728902E+10,      /* I =779 */
(PID.TID 0000.0001)                 8.410423102796223E+10,      /* I =780 */
(PID.TID 0000.0001)                 8.674306976737517E+10,      /* I =781 */
(PID.TID 0000.0001)                 8.874277443041928E+10,      /* I =782 */
(PID.TID 0000.0001)                 9.008620045350865E+10,      /* I =783 */
(PID.TID 0000.0001)                 9.076111290418457E+10,      /* I =784 */
(PID.TID 0000.0001)                 9.076111290422060E+10,      /* I =785 */
(PID.TID 0000.0001)                 9.008620045354469E+10,      /* I =786 */
(PID.TID 0000.0001)                 8.874277443041928E+10,      /* I =787 */
(PID.TID 0000.0001)                 8.674306976741121E+10,      /* I =788 */
(PID.TID 0000.0001)                 8.410423102799828E+10,      /* I =789 */
(PID.TID 0000.0001)                 8.084683449728902E+10,      /* I =790 */
(PID.TID 0000.0001)                 7.699293007098555E+10,      /* I =791 */
(PID.TID 0000.0001)                 7.256353271748119E+10,      /* I =792 */
(PID.TID 0000.0001)                 6.757541173817516E+10,      /* I =793 */
(PID.TID 0000.0001)                 6.203683527772523E+10,      /* I =794 */
(PID.TID 0000.0001)                 5.594154126611156E+10,      /* I =795 */
(PID.TID 0000.0001)                 4.925938996118163E+10,      /* I =796 */
(PID.TID 0000.0001)                 4.192037169898667E+10,      /* I =797 */
(PID.TID 0000.0001)                 3.378518544304265E+10,      /* I =798 */
(PID.TID 0000.0001)                 2.459906945574446E+10,      /* I =799 */
(PID.TID 0000.0001)                 1.401900702259215E+10,      /* I =800 */
(PID.TID 0000.0001)                 4.925938996118163E+10,      /* I =801 */
(PID.TID 0000.0001)                 5.077234053174238E+10,      /* I =802 */
(PID.TID 0000.0001)                 5.353037267574563E+10,      /* I =803 */
(PID.TID 0000.0001)                 5.714531235245521E+10,      /* I =804 */
(PID.TID 0000.0001)                 6.125259462314511E+10,      /* I =805 */
(PID.TID 0000.0001)                 6.556931309633417E+10,      /* I =806 */
(PID.TID 0000.0001)                 6.989166670270824E+10,      /* I =807 */
(PID.TID 0000.0001)                 7.407378391965518E+10,      /* I =808 */
(PID.TID 0000.0001)                 7.800802871997223E+10,      /* I =809 */
(PID.TID 0000.0001)                 8.161143484441284E+10,      /* I =810 */
(PID.TID 0000.0001)                 8.481751304090741E+10,      /* I =811 */
(PID.TID 0000.0001)                 8.757174167036623E+10,      /* I =812 */
(PID.TID 0000.0001)                 8.982934837778833E+10,      /* I =813 */
(PID.TID 0000.0001)                 9.155442926157257E+10,      /* I =814 */
(PID.TID 0000.0001)                 9.271978624749503E+10,      /* I =815 */
(PID.TID 0000.0001)     2 @  9.330709899483766E+10,             /* I =816:817 */
(PID.TID 0000.0001)                 9.271978624745898E+10,      /* I =818 */
(PID.TID 0000.0001)                 9.155442926157257E+10,      /* I =819 */
(PID.TID 0000.0001)                 8.982934837778833E+10,      /* I =820 */
(PID.TID 0000.0001)                 8.757174167036623E+10,      /* I =821 */
(PID.TID 0000.0001)                 8.481751304090741E+10,      /* I =822 */
(PID.TID 0000.0001)                 8.161143484437680E+10,      /* I =823 */
(PID.TID 0000.0001)                 7.800802871997223E+10,      /* I =824 */
(PID.TID 0000.0001)                 7.407378391965518E+10,      /* I =825 */
(PID.TID 0000.0001)                 6.989166670270824E+10,      /* I =826 */
(PID.TID 0000.0001)                 6.556931309633417E+10,      /* I =827 */
(PID.TID 0000.0001)                 6.125259462318115E+10,      /* I =828 */
(PID.TID 0000.0001)                 5.714531235245521E+10,      /* I =829 */
(PID.TID 0000.0001)                 5.353037267574563E+10,      /* I =830 */
(PID.TID 0000.0001)                 5.077234053177842E+10,      /* I =831 */
(PID.TID 0000.0001)                 4.925938996118163E+10,      /* I =832 */
(PID.TID 0000.0001)                 7.256353271748119E+10,      /* I =833 */
(PID.TID 0000.0001)                 7.316560555603816E+10,      /* I =834 */
(PID.TID 0000.0001)                 7.432809861291336E+10,      /* I =835 */
(PID.TID 0000.0001)                 7.597507578906308E+10,      /* I =836 */
(PID.TID 0000.0001)                 7.800802871993619E+10,      /* I =837 */
(PID.TID 0000.0001)                 8.031792520226384E+10,      /* I =838 */
(PID.TID 0000.0001)                 8.279477205479343E+10,      /* I =839 */
(PID.TID 0000.0001)                 8.533379325707961E+10,      /* I =840 */
(PID.TID 0000.0001)                 8.783871201160951E+10,      /* I =841 */
(PID.TID 0000.0001)                 9.022313873522023E+10,      /* I =842 */
(PID.TID 0000.0001)                 9.241098780606058E+10,      /* I =843 */
(PID.TID 0000.0001)                 9.433654646922043E+10,      /* I =844 */
(PID.TID 0000.0001)                 9.594452469251483E+10,      /* I =845 */
(PID.TID 0000.0001)                 9.719020454870135E+10,      /* I =846 */
(PID.TID 0000.0001)                 9.803968493821149E+10,      /* I =847 */
(PID.TID 0000.0001)                 9.847017339810080E+10,      /* I =848 */
(PID.TID 0000.0001)                 9.847017339806476E+10,      /* I =849 */
(PID.TID 0000.0001)                 9.803968493821149E+10,      /* I =850 */
(PID.TID 0000.0001)                 9.719020454873740E+10,      /* I =851 */
(PID.TID 0000.0001)                 9.594452469255087E+10,      /* I =852 */
(PID.TID 0000.0001)                 9.433654646922043E+10,      /* I =853 */
(PID.TID 0000.0001)                 9.241098780606058E+10,      /* I =854 */
(PID.TID 0000.0001)                 9.022313873522023E+10,      /* I =855 */
(PID.TID 0000.0001)                 8.783871201160951E+10,      /* I =856 */
(PID.TID 0000.0001)                 8.533379325707961E+10,      /* I =857 */
(PID.TID 0000.0001)                 8.279477205479343E+10,      /* I =858 */
(PID.TID 0000.0001)                 8.031792520226384E+10,      /* I =859 */
(PID.TID 0000.0001)                 7.800802871997223E+10,      /* I =860 */
(PID.TID 0000.0001)                 7.597507578906308E+10,      /* I =861 */
(PID.TID 0000.0001)                 7.432809861298544E+10,      /* I =862 */
(PID.TID 0000.0001)                 7.316560555600214E+10,      /* I =863 */
(PID.TID 0000.0001)                 7.256353271748119E+10,      /* I =864 */
(PID.TID 0000.0001)                 8.674306976737517E+10,      /* I =865 */
(PID.TID 0000.0001)                 8.707289939726053E+10,      /* I =866 */
(PID.TID 0000.0001)                 8.771796996822122E+10,      /* I =867 */
(PID.TID 0000.0001)                 8.865010184133475E+10,      /* I =868 */
(PID.TID 0000.0001)                 8.982934837778833E+10,      /* I =869 */
(PID.TID 0000.0001)                 9.120636580252011E+10,      /* I =870 */
(PID.TID 0000.0001)                 9.272503093370717E+10,      /* I =871 */
(PID.TID 0000.0001)                 9.432506641773729E+10,      /* I =872 */
(PID.TID 0000.0001)                 9.594452469251483E+10,      /* I =873 */
(PID.TID 0000.0001)                 9.752206662013898E+10,      /* I =874 */
(PID.TID 0000.0001)                 9.899902549681102E+10,      /* I =875 */
(PID.TID 0000.0001)                 1.003212683917232E+11,      /* I =876 */
(PID.TID 0000.0001)                 1.014408632438172E+11,      /* I =877 */
(PID.TID 0000.0001)                 1.023175444268777E+11,      /* I =878 */
(PID.TID 0000.0001)                 1.029199524752013E+11,      /* I =879 */
(PID.TID 0000.0001)                 1.032266241858783E+11,      /* I =880 */
(PID.TID 0000.0001)                 1.032266241858423E+11,      /* I =881 */
(PID.TID 0000.0001)                 1.029199524752373E+11,      /* I =882 */
(PID.TID 0000.0001)                 1.023175444268777E+11,      /* I =883 */
(PID.TID 0000.0001)                 1.014408632438172E+11,      /* I =884 */
(PID.TID 0000.0001)                 1.003212683916871E+11,      /* I =885 */
(PID.TID 0000.0001)                 9.899902549681102E+10,      /* I =886 */
(PID.TID 0000.0001)                 9.752206662017502E+10,      /* I =887 */
(PID.TID 0000.0001)                 9.594452469251483E+10,      /* I =888 */
(PID.TID 0000.0001)                 9.432506641773729E+10,      /* I =889 */
(PID.TID 0000.0001)                 9.272503093367113E+10,      /* I =890 */
(PID.TID 0000.0001)                 9.120636580252011E+10,      /* I =891 */
(PID.TID 0000.0001)                 8.982934837778833E+10,      /* I =892 */
(PID.TID 0000.0001)                 8.865010184129871E+10,      /* I =893 */
(PID.TID 0000.0001)                 8.771796996818518E+10,      /* I =894 */
(PID.TID 0000.0001)                 8.707289939726053E+10,      /* I =895 */
(PID.TID 0000.0001)                 8.674306976737517E+10,      /* I =896 */
(PID.TID 0000.0001)                 9.076111290422060E+10,      /* I =897 */
(PID.TID 0000.0001)                 9.103111035233499E+10,      /* I =898 */
(PID.TID 0000.0001)                 9.156064070993231E+10,      /* I =899 */
(PID.TID 0000.0001)                 9.232920428260213E+10,      /* I =900 */
(PID.TID 0000.0001)                 9.330709899483766E+10,      /* I =901 */
(PID.TID 0000.0001)                 9.445660930090860E+10,      /* I =902 */
(PID.TID 0000.0001)                 9.573349030317511E+10,      /* I =903 */
(PID.TID 0000.0001)                 9.708868016530809E+10,      /* I =904 */
(PID.TID 0000.0001)                 9.847017339806476E+10,      /* I =905 */
(PID.TID 0000.0001)                 9.982498936271980E+10,      /* I =906 */
(PID.TID 0000.0001)                 1.011011716698855E+11,      /* I =907 */
(PID.TID 0000.0001)                 1.022497537646060E+11,      /* I =908 */
(PID.TID 0000.0001)                 1.032266241858423E+11,      /* I =909 */
(PID.TID 0000.0001)                 1.039942233001552E+11,      /* I =910 */
(PID.TID 0000.0001)                 1.045230037451501E+11,      /* I =911 */
(PID.TID 0000.0001)     2 @  1.047926024841940E+11,             /* I =912:913 */
(PID.TID 0000.0001)                 1.045230037451861E+11,      /* I =914 */
(PID.TID 0000.0001)                 1.039942233001552E+11,      /* I =915 */
(PID.TID 0000.0001)                 1.032266241858783E+11,      /* I =916 */
(PID.TID 0000.0001)                 1.022497537646060E+11,      /* I =917 */
(PID.TID 0000.0001)                 1.011011716699215E+11,      /* I =918 */
(PID.TID 0000.0001)                 9.982498936268376E+10,      /* I =919 */
(PID.TID 0000.0001)                 9.847017339806476E+10,      /* I =920 */
(PID.TID 0000.0001)                 9.708868016527205E+10,      /* I =921 */
(PID.TID 0000.0001)                 9.573349030313907E+10,      /* I =922 */
(PID.TID 0000.0001)                 9.445660930090860E+10,      /* I =923 */
(PID.TID 0000.0001)                 9.330709899483766E+10,      /* I =924 */
(PID.TID 0000.0001)                 9.232920428256609E+10,      /* I =925 */
(PID.TID 0000.0001)                 9.156064070993231E+10,      /* I =926 */
(PID.TID 0000.0001)                 9.103111035233499E+10,      /* I =927 */
(PID.TID 0000.0001)                 9.076111290418457E+10,      /* I =928 */
(PID.TID 0000.0001)                 8.410423102799828E+10,      /* I =929 */
(PID.TID 0000.0001)                 8.447677539246103E+10,      /* I =930 */
(PID.TID 0000.0001)                 8.520397184519502E+10,      /* I =931 */
(PID.TID 0000.0001)                 8.625157736320589E+10,      /* I =932 */
(PID.TID 0000.0001)                 8.757174167036623E+10,      /* I =933 */
(PID.TID 0000.0001)                 8.910641714496939E+10,      /* I =934 */
(PID.TID 0000.0001)                 9.079090192400487E+10,      /* I =935 */
(PID.TID 0000.0001)                 9.255713331730203E+10,      /* I =936 */
(PID.TID 0000.0001)                 9.433654646922043E+10,      /* I =937 */
(PID.TID 0000.0001)                 9.606247471973146E+10,      /* I =938 */
(PID.TID 0000.0001)                 9.767215757505988E+10,      /* I =939 */
(PID.TID 0000.0001)                 9.910844509259473E+10,      /* I =940 */
(PID.TID 0000.0001)                 1.003212683917232E+11,      /* I =941 */
(PID.TID 0000.0001)                 1.012689103619959E+11,      /* I =942 */
(PID.TID 0000.0001)                 1.019190764103736E+11,      /* I =943 */
(PID.TID 0000.0001)     2 @  1.022497537646060E+11,             /* I =944:945 */
(PID.TID 0000.0001)                 1.019190764103376E+11,      /* I =946 */
(PID.TID 0000.0001)                 1.012689103619598E+11,      /* I =947 */
(PID.TID 0000.0001)                 1.003212683916871E+11,      /* I =948 */
(PID.TID 0000.0001)                 9.910844509259473E+10,      /* I =949 */
(PID.TID 0000.0001)                 9.767215757505988E+10,      /* I =950 */
(PID.TID 0000.0001)                 9.606247471973146E+10,      /* I =951 */
(PID.TID 0000.0001)                 9.433654646922043E+10,      /* I =952 */
(PID.TID 0000.0001)                 9.255713331730203E+10,      /* I =953 */
(PID.TID 0000.0001)                 9.079090192400487E+10,      /* I =954 */
(PID.TID 0000.0001)                 8.910641714496939E+10,      /* I =955 */
(PID.TID 0000.0001)                 8.757174167036623E+10,      /* I =956 */
(PID.TID 0000.0001)                 8.625157736324193E+10,      /* I =957 */
(PID.TID 0000.0001)                 8.520397184519502E+10,      /* I =958 */
(PID.TID 0000.0001)                 8.447677539246103E+10,      /* I =959 */
(PID.TID 0000.0001)                 8.410423102803432E+10,      /* I =960 */
(PID.TID 0000.0001)                 6.757541173817516E+10,      /* I =961 */
(PID.TID 0000.0001)                 6.830648821282825E+10,      /* I =962 */
(PID.TID 0000.0001)                 6.970852823518779E+10,      /* I =963 */
(PID.TID 0000.0001)                 7.167505933266579E+10,      /* I =964 */
(PID.TID 0000.0001)                 7.407378391965518E+10,      /* I =965 */
(PID.TID 0000.0001)                 7.676559153402333E+10,      /* I =966 */
(PID.TID 0000.0001)                 7.961744142441241E+10,      /* I =967 */
(PID.TID 0000.0001)                 8.250883164798820E+10,      /* I =968 */
(PID.TID 0000.0001)                 8.533379325707961E+10,      /* I =969 */
(PID.TID 0000.0001)                 8.800057596473148E+10,      /* I =970 */
(PID.TID 0000.0001)                 9.043054958589890E+10,      /* I =971 */
(PID.TID 0000.0001)                 9.255713331733807E+10,      /* I =972 */
(PID.TID 0000.0001)                 9.432506641773729E+10,      /* I =973 */
(PID.TID 0000.0001)                 9.569005670076813E+10,      /* I =974 */
(PID.TID 0000.0001)                 9.661871769577347E+10,      /* I =975 */
(PID.TID 0000.0001)     2 @  9.708868016527205E+10,             /* I =976:977 */
(PID.TID 0000.0001)                 9.661871769577347E+10,      /* I =978 */
(PID.TID 0000.0001)                 9.569005670073209E+10,      /* I =979 */
(PID.TID 0000.0001)                 9.432506641773729E+10,      /* I =980 */
(PID.TID 0000.0001)                 9.255713331730203E+10,      /* I =981 */
(PID.TID 0000.0001)                 9.043054958589890E+10,      /* I =982 */
(PID.TID 0000.0001)                 8.800057596473148E+10,      /* I =983 */
(PID.TID 0000.0001)                 8.533379325707961E+10,      /* I =984 */
(PID.TID 0000.0001)                 8.250883164795216E+10,      /* I =985 */
(PID.TID 0000.0001)                 7.961744142437637E+10,      /* I =986 */
(PID.TID 0000.0001)                 7.676559153402333E+10,      /* I =987 */
(PID.TID 0000.0001)                 7.407378391965518E+10,      /* I =988 */
(PID.TID 0000.0001)                 7.167505933266579E+10,      /* I =989 */
(PID.TID 0000.0001)                 6.970852823515175E+10,      /* I =990 */
(PID.TID 0000.0001)                 6.830648821282825E+10,      /* I =991 */
(PID.TID 0000.0001)                 6.757541173817516E+10,      /* I =992 */
(PID.TID 0000.0001)                 4.192037169898667E+10,      /* I =993 */
(PID.TID 0000.0001)                 4.401452325760989E+10,      /* I =994 */
(PID.TID 0000.0001)                 4.766459252985624E+10,      /* I =995 */
(PID.TID 0000.0001)                 5.220923003176699E+10,      /* I =996 */
(PID.TID 0000.0001)                 5.714531235245521E+10,      /* I =997 */
(PID.TID 0000.0001)                 6.215369972930369E+10,      /* I =998 */
(PID.TID 0000.0001)                 6.703877859373658E+10,      /* I =999 */
(PID.TID 0000.0001)                 7.167505933270183E+10,      /* I =*** */
(PID.TID 0000.0001)                 7.597507578906308E+10,      /* I =*** */
(PID.TID 0000.0001)                 7.987235447025922E+10,      /* I =*** */
(PID.TID 0000.0001)                 8.331295262617410E+10,      /* I =*** */
(PID.TID 0000.0001)                 8.625157736324193E+10,      /* I =*** */
(PID.TID 0000.0001)                 8.865010184129871E+10,      /* I =*** */
(PID.TID 0000.0001)                 9.047729707358572E+10,      /* I =*** */
(PID.TID 0000.0001)                 9.170912196569034E+10,      /* I =*** */
(PID.TID 0000.0001)                 9.232920428260213E+10,      /* I =*** */
(PID.TID 0000.0001)                 9.232920428256609E+10,      /* I =*** */
(PID.TID 0000.0001)                 9.170912196569034E+10,      /* I =*** */
(PID.TID 0000.0001)                 9.047729707358572E+10,      /* I =*** */
(PID.TID 0000.0001)                 8.865010184129871E+10,      /* I =*** */
(PID.TID 0000.0001)                 8.625157736324193E+10,      /* I =*** */
(PID.TID 0000.0001)                 8.331295262613806E+10,      /* I =*** */
(PID.TID 0000.0001)                 7.987235447022318E+10,      /* I =*** */
(PID.TID 0000.0001)                 7.597507578906308E+10,      /* I =*** */
(PID.TID 0000.0001)                 7.167505933266579E+10,      /* I =*** */
(PID.TID 0000.0001)                 6.703877859373658E+10,      /* I =*** */
(PID.TID 0000.0001)                 6.215369972933973E+10,      /* I =*** */
(PID.TID 0000.0001)                 5.714531235249125E+10,      /* I =*** */
(PID.TID 0000.0001)                 5.220923003176699E+10,      /* I =*** */
(PID.TID 0000.0001)                 4.766459252985624E+10,      /* I =*** */
(PID.TID 0000.0001)                 4.401452325760989E+10,      /* I =*** */
(PID.TID 0000.0001)                 4.192037169898667E+10,      /* I =*** */
(PID.TID 0000.0001)                 1.401900702255611E+10,      /* I =*** */
(PID.TID 0000.0001)                 2.459906945574446E+10,      /* I =*** */
(PID.TID 0000.0001)                 3.378518544307869E+10,      /* I =*** */
(PID.TID 0000.0001)                 4.192037169898667E+10,      /* I =*** */
(PID.TID 0000.0001)                 4.925938996118163E+10,      /* I =*** */
(PID.TID 0000.0001)                 5.594154126607553E+10,      /* I =*** */
(PID.TID 0000.0001)                 6.203683527772523E+10,      /* I =*** */
(PID.TID 0000.0001)                 6.757541173817516E+10,      /* I =*** */
(PID.TID 0000.0001)                 7.256353271748119E+10,      /* I =*** */
(PID.TID 0000.0001)                 7.699293007098555E+10,      /* I =*** */
(PID.TID 0000.0001)                 8.084683449728902E+10,      /* I =*** */
(PID.TID 0000.0001)                 8.410423102796223E+10,      /* I =*** */
(PID.TID 0000.0001)                 8.674306976737517E+10,      /* I =*** */
(PID.TID 0000.0001)                 8.874277443041928E+10,      /* I =*** */
(PID.TID 0000.0001)                 9.008620045350865E+10,      /* I =*** */
(PID.TID 0000.0001)                 9.076111290418457E+10,      /* I =*** */
(PID.TID 0000.0001)                 9.076111290422060E+10,      /* I =*** */
(PID.TID 0000.0001)                 9.008620045354469E+10,      /* I =*** */
(PID.TID 0000.0001)                 8.874277443041928E+10,      /* I =*** */
(PID.TID 0000.0001)                 8.674306976741121E+10,      /* I =*** */
(PID.TID 0000.0001)                 8.410423102799828E+10,      /* I =*** */
(PID.TID 0000.0001)                 8.084683449728902E+10,      /* I =*** */
(PID.TID 0000.0001)                 7.699293007098555E+10,      /* I =*** */
(PID.TID 0000.0001)                 7.256353271748119E+10,      /* I =*** */
(PID.TID 0000.0001)                 6.757541173817516E+10,      /* I =*** */
(PID.TID 0000.0001)                 6.203683527772523E+10,      /* I =*** */
(PID.TID 0000.0001)                 5.594154126611156E+10,      /* I =*** */
(PID.TID 0000.0001)                 4.925938996118163E+10,      /* I =*** */
(PID.TID 0000.0001)                 4.192037169898667E+10,      /* I =*** */
(PID.TID 0000.0001)                 3.378518544304265E+10,      /* I =*** */
(PID.TID 0000.0001)                 2.459906945574446E+10,      /* I =*** */
(PID.TID 0000.0001)                 1.401900702259215E+10,      /* I =*** */
(PID.TID 0000.0001)                 4.925938996118163E+10,      /* I =*** */
(PID.TID 0000.0001)                 5.077234053174238E+10,      /* I =*** */
(PID.TID 0000.0001)                 5.353037267574563E+10,      /* I =*** */
(PID.TID 0000.0001)                 5.714531235245521E+10,      /* I =*** */
(PID.TID 0000.0001)                 6.125259462314511E+10,      /* I =*** */
(PID.TID 0000.0001)                 6.556931309633417E+10,      /* I =*** */
(PID.TID 0000.0001)                 6.989166670270824E+10,      /* I =*** */
(PID.TID 0000.0001)                 7.407378391965518E+10,      /* I =*** */
(PID.TID 0000.0001)                 7.800802871997223E+10,      /* I =*** */
(PID.TID 0000.0001)                 8.161143484441284E+10,      /* I =*** */
(PID.TID 0000.0001)                 8.481751304090741E+10,      /* I =*** */
(PID.TID 0000.0001)                 8.757174167036623E+10,      /* I =*** */
(PID.TID 0000.0001)                 8.982934837778833E+10,      /* I =*** */
(PID.TID 0000.0001)                 9.155442926157257E+10,      /* I =*** */
(PID.TID 0000.0001)                 9.271978624749503E+10,      /* I =*** */
(PID.TID 0000.0001)     2 @  9.330709899483766E+10,             /* I =***:*** */
(PID.TID 0000.0001)                 9.271978624745898E+10,      /* I =*** */
(PID.TID 0000.0001)                 9.155442926157257E+10,      /* I =*** */
(PID.TID 0000.0001)                 8.982934837778833E+10,      /* I =*** */
(PID.TID 0000.0001)                 8.757174167036623E+10,      /* I =*** */
(PID.TID 0000.0001)                 8.481751304090741E+10,      /* I =*** */
(PID.TID 0000.0001)                 8.161143484437680E+10,      /* I =*** */
(PID.TID 0000.0001)                 7.800802871997223E+10,      /* I =*** */
(PID.TID 0000.0001)                 7.407378391965518E+10,      /* I =*** */
(PID.TID 0000.0001)                 6.989166670270824E+10,      /* I =*** */
(PID.TID 0000.0001)                 6.556931309633417E+10,      /* I =*** */
(PID.TID 0000.0001)                 6.125259462318115E+10,      /* I =*** */
(PID.TID 0000.0001)                 5.714531235245521E+10,      /* I =*** */
(PID.TID 0000.0001)                 5.353037267574563E+10,      /* I =*** */
(PID.TID 0000.0001)                 5.077234053177842E+10,      /* I =*** */
(PID.TID 0000.0001)                 4.925938996118163E+10,      /* I =*** */
(PID.TID 0000.0001)                 7.256353271748119E+10,      /* I =*** */
(PID.TID 0000.0001)                 7.316560555603816E+10,      /* I =*** */
(PID.TID 0000.0001)                 7.432809861291336E+10,      /* I =*** */
(PID.TID 0000.0001)                 7.597507578906308E+10,      /* I =*** */
(PID.TID 0000.0001)                 7.800802871993619E+10,      /* I =*** */
(PID.TID 0000.0001)                 8.031792520226384E+10,      /* I =*** */
(PID.TID 0000.0001)                 8.279477205479343E+10,      /* I =*** */
(PID.TID 0000.0001)                 8.533379325707961E+10,      /* I =*** */
(PID.TID 0000.0001)                 8.783871201160951E+10,      /* I =*** */
(PID.TID 0000.0001)                 9.022313873522023E+10,      /* I =*** */
(PID.TID 0000.0001)                 9.241098780606058E+10,      /* I =*** */
(PID.TID 0000.0001)                 9.433654646922043E+10,      /* I =*** */
(PID.TID 0000.0001)                 9.594452469251483E+10,      /* I =*** */
(PID.TID 0000.0001)                 9.719020454870135E+10,      /* I =*** */
(PID.TID 0000.0001)                 9.803968493821149E+10,      /* I =*** */
(PID.TID 0000.0001)                 9.847017339810080E+10,      /* I =*** */
(PID.TID 0000.0001)                 9.847017339806476E+10,      /* I =*** */
(PID.TID 0000.0001)                 9.803968493821149E+10,      /* I =*** */
(PID.TID 0000.0001)                 9.719020454873740E+10,      /* I =*** */
(PID.TID 0000.0001)                 9.594452469255087E+10,      /* I =*** */
(PID.TID 0000.0001)                 9.433654646922043E+10,      /* I =*** */
(PID.TID 0000.0001)                 9.241098780606058E+10,      /* I =*** */
(PID.TID 0000.0001)                 9.022313873522023E+10,      /* I =*** */
(PID.TID 0000.0001)                 8.783871201160951E+10,      /* I =*** */
(PID.TID 0000.0001)                 8.533379325707961E+10,      /* I =*** */
(PID.TID 0000.0001)                 8.279477205479343E+10,      /* I =*** */
(PID.TID 0000.0001)                 8.031792520226384E+10,      /* I =*** */
(PID.TID 0000.0001)                 7.800802871997223E+10,      /* I =*** */
(PID.TID 0000.0001)                 7.597507578906308E+10,      /* I =*** */
(PID.TID 0000.0001)                 7.432809861298544E+10,      /* I =*** */
(PID.TID 0000.0001)                 7.316560555600214E+10,      /* I =*** */
(PID.TID 0000.0001)                 7.256353271748119E+10,      /* I =*** */
(PID.TID 0000.0001)                 8.674306976737517E+10,      /* I =*** */
(PID.TID 0000.0001)                 8.707289939726053E+10,      /* I =*** */
(PID.TID 0000.0001)                 8.771796996822122E+10,      /* I =*** */
(PID.TID 0000.0001)                 8.865010184133475E+10,      /* I =*** */
(PID.TID 0000.0001)                 8.982934837778833E+10,      /* I =*** */
(PID.TID 0000.0001)                 9.120636580252011E+10,      /* I =*** */
(PID.TID 0000.0001)                 9.272503093370717E+10,      /* I =*** */
(PID.TID 0000.0001)                 9.432506641773729E+10,      /* I =*** */
(PID.TID 0000.0001)                 9.594452469251483E+10,      /* I =*** */
(PID.TID 0000.0001)                 9.752206662013898E+10,      /* I =*** */
(PID.TID 0000.0001)                 9.899902549681102E+10,      /* I =*** */
(PID.TID 0000.0001)                 1.003212683917232E+11,      /* I =*** */
(PID.TID 0000.0001)                 1.014408632438172E+11,      /* I =*** */
(PID.TID 0000.0001)                 1.023175444268777E+11,      /* I =*** */
(PID.TID 0000.0001)                 1.029199524752013E+11,      /* I =*** */
(PID.TID 0000.0001)                 1.032266241858783E+11,      /* I =*** */
(PID.TID 0000.0001)                 1.032266241858423E+11,      /* I =*** */
(PID.TID 0000.0001)                 1.029199524752373E+11,      /* I =*** */
(PID.TID 0000.0001)                 1.023175444268777E+11,      /* I =*** */
(PID.TID 0000.0001)                 1.014408632438172E+11,      /* I =*** */
(PID.TID 0000.0001)                 1.003212683916871E+11,      /* I =*** */
(PID.TID 0000.0001)                 9.899902549681102E+10,      /* I =*** */
(PID.TID 0000.0001)                 9.752206662017502E+10,      /* I =*** */
(PID.TID 0000.0001)                 9.594452469251483E+10,      /* I =*** */
(PID.TID 0000.0001)                 9.432506641773729E+10,      /* I =*** */
(PID.TID 0000.0001)                 9.272503093367113E+10,      /* I =*** */
(PID.TID 0000.0001)                 9.120636580252011E+10,      /* I =*** */
(PID.TID 0000.0001)                 8.982934837778833E+10,      /* I =*** */
(PID.TID 0000.0001)                 8.865010184129871E+10,      /* I =*** */
(PID.TID 0000.0001)                 8.771796996818518E+10,      /* I =*** */
(PID.TID 0000.0001)                 8.707289939726053E+10,      /* I =*** */
(PID.TID 0000.0001)                 8.674306976737517E+10,      /* I =*** */
(PID.TID 0000.0001)                 9.076111290422060E+10,      /* I =*** */
(PID.TID 0000.0001)                 9.103111035233499E+10,      /* I =*** */
(PID.TID 0000.0001)                 9.156064070993231E+10,      /* I =*** */
(PID.TID 0000.0001)                 9.232920428260213E+10,      /* I =*** */
(PID.TID 0000.0001)                 9.330709899483766E+10,      /* I =*** */
(PID.TID 0000.0001)                 9.445660930090860E+10,      /* I =*** */
(PID.TID 0000.0001)                 9.573349030317511E+10,      /* I =*** */
(PID.TID 0000.0001)                 9.708868016530809E+10,      /* I =*** */
(PID.TID 0000.0001)                 9.847017339806476E+10,      /* I =*** */
(PID.TID 0000.0001)                 9.982498936271980E+10,      /* I =*** */
(PID.TID 0000.0001)                 1.011011716698855E+11,      /* I =*** */
(PID.TID 0000.0001)                 1.022497537646060E+11,      /* I =*** */
(PID.TID 0000.0001)                 1.032266241858423E+11,      /* I =*** */
(PID.TID 0000.0001)                 1.039942233001552E+11,      /* I =*** */
(PID.TID 0000.0001)                 1.045230037451501E+11,      /* I =*** */
(PID.TID 0000.0001)     2 @  1.047926024841940E+11,             /* I =***:*** */
(PID.TID 0000.0001)                 1.045230037451861E+11,      /* I =*** */
(PID.TID 0000.0001)                 1.039942233001552E+11,      /* I =*** */
(PID.TID 0000.0001)                 1.032266241858783E+11,      /* I =*** */
(PID.TID 0000.0001)                 1.022497537646060E+11,      /* I =*** */
(PID.TID 0000.0001)                 1.011011716699215E+11,      /* I =*** */
(PID.TID 0000.0001)                 9.982498936268376E+10,      /* I =*** */
(PID.TID 0000.0001)                 9.847017339806476E+10,      /* I =*** */
(PID.TID 0000.0001)                 9.708868016527205E+10,      /* I =*** */
(PID.TID 0000.0001)                 9.573349030313907E+10,      /* I =*** */
(PID.TID 0000.0001)                 9.445660930090860E+10,      /* I =*** */
(PID.TID 0000.0001)                 9.330709899483766E+10,      /* I =*** */
(PID.TID 0000.0001)                 9.232920428256609E+10,      /* I =*** */
(PID.TID 0000.0001)                 9.156064070993231E+10,      /* I =*** */
(PID.TID 0000.0001)                 9.103111035233499E+10,      /* I =*** */
(PID.TID 0000.0001)                 9.076111290418457E+10,      /* I =*** */
(PID.TID 0000.0001)                 8.410423102799828E+10,      /* I =*** */
(PID.TID 0000.0001)                 8.447677539246103E+10,      /* I =*** */
(PID.TID 0000.0001)                 8.520397184519502E+10,      /* I =*** */
(PID.TID 0000.0001)                 8.625157736320589E+10,      /* I =*** */
(PID.TID 0000.0001)                 8.757174167036623E+10,      /* I =*** */
(PID.TID 0000.0001)                 8.910641714496939E+10,      /* I =*** */
(PID.TID 0000.0001)                 9.079090192400487E+10,      /* I =*** */
(PID.TID 0000.0001)                 9.255713331730203E+10,      /* I =*** */
(PID.TID 0000.0001)                 9.433654646922043E+10,      /* I =*** */
(PID.TID 0000.0001)                 9.606247471973146E+10,      /* I =*** */
(PID.TID 0000.0001)                 9.767215757505988E+10,      /* I =*** */
(PID.TID 0000.0001)                 9.910844509259473E+10,      /* I =*** */
(PID.TID 0000.0001)                 1.003212683917232E+11,      /* I =*** */
(PID.TID 0000.0001)                 1.012689103619959E+11,      /* I =*** */
(PID.TID 0000.0001)                 1.019190764103736E+11,      /* I =*** */
(PID.TID 0000.0001)     2 @  1.022497537646060E+11,             /* I =***:*** */
(PID.TID 0000.0001)                 1.019190764103376E+11,      /* I =*** */
(PID.TID 0000.0001)                 1.012689103619598E+11,      /* I =*** */
(PID.TID 0000.0001)                 1.003212683916871E+11,      /* I =*** */
(PID.TID 0000.0001)                 9.910844509259473E+10,      /* I =*** */
(PID.TID 0000.0001)                 9.767215757505988E+10,      /* I =*** */
(PID.TID 0000.0001)                 9.606247471973146E+10,      /* I =*** */
(PID.TID 0000.0001)                 9.433654646922043E+10,      /* I =*** */
(PID.TID 0000.0001)                 9.255713331730203E+10,      /* I =*** */
(PID.TID 0000.0001)                 9.079090192400487E+10,      /* I =*** */
(PID.TID 0000.0001)                 8.910641714496939E+10,      /* I =*** */
(PID.TID 0000.0001)                 8.757174167036623E+10,      /* I =*** */
(PID.TID 0000.0001)                 8.625157736324193E+10,      /* I =*** */
(PID.TID 0000.0001)                 8.520397184519502E+10,      /* I =*** */
(PID.TID 0000.0001)                 8.447677539246103E+10,      /* I =*** */
(PID.TID 0000.0001)                 8.410423102803432E+10,      /* I =*** */
(PID.TID 0000.0001)                 6.757541173817516E+10,      /* I =*** */
(PID.TID 0000.0001)                 6.830648821282825E+10,      /* I =*** */
(PID.TID 0000.0001)                 6.970852823518779E+10,      /* I =*** */
(PID.TID 0000.0001)                 7.167505933266579E+10,      /* I =*** */
(PID.TID 0000.0001)                 7.407378391965518E+10,      /* I =*** */
(PID.TID 0000.0001)                 7.676559153402333E+10,      /* I =*** */
(PID.TID 0000.0001)                 7.961744142441241E+10,      /* I =*** */
(PID.TID 0000.0001)                 8.250883164798820E+10,      /* I =*** */
(PID.TID 0000.0001)                 8.533379325707961E+10,      /* I =*** */
(PID.TID 0000.0001)                 8.800057596473148E+10,      /* I =*** */
(PID.TID 0000.0001)                 9.043054958589890E+10,      /* I =*** */
(PID.TID 0000.0001)                 9.255713331733807E+10,      /* I =*** */
(PID.TID 0000.0001)                 9.432506641773729E+10,      /* I =*** */
(PID.TID 0000.0001)                 9.569005670076813E+10,      /* I =*** */
(PID.TID 0000.0001)                 9.661871769577347E+10,      /* I =*** */
(PID.TID 0000.0001)     2 @  9.708868016527205E+10,             /* I =***:*** */
(PID.TID 0000.0001)                 9.661871769577347E+10,      /* I =*** */
(PID.TID 0000.0001)                 9.569005670073209E+10,      /* I =*** */
(PID.TID 0000.0001)                 9.432506641773729E+10,      /* I =*** */
(PID.TID 0000.0001)                 9.255713331730203E+10,      /* I =*** */
(PID.TID 0000.0001)                 9.043054958589890E+10,      /* I =*** */
(PID.TID 0000.0001)                 8.800057596473148E+10,      /* I =*** */
(PID.TID 0000.0001)                 8.533379325707961E+10,      /* I =*** */
(PID.TID 0000.0001)                 8.250883164795216E+10,      /* I =*** */
(PID.TID 0000.0001)                 7.961744142437637E+10,      /* I =*** */
(PID.TID 0000.0001)                 7.676559153402333E+10,      /* I =*** */
(PID.TID 0000.0001)                 7.407378391965518E+10,      /* I =*** */
(PID.TID 0000.0001)                 7.167505933266579E+10,      /* I =*** */
(PID.TID 0000.0001)                 6.970852823515175E+10,      /* I =*** */
(PID.TID 0000.0001)                 6.830648821282825E+10,      /* I =*** */
(PID.TID 0000.0001)                 6.757541173817516E+10,      /* I =*** */
(PID.TID 0000.0001)                 4.192037169898667E+10,      /* I =*** */
(PID.TID 0000.0001)                 4.401452325760989E+10,      /* I =*** */
(PID.TID 0000.0001)                 4.766459252985624E+10,      /* I =*** */
(PID.TID 0000.0001)                 5.220923003176699E+10,      /* I =*** */
(PID.TID 0000.0001)                 5.714531235245521E+10,      /* I =*** */
(PID.TID 0000.0001)                 6.215369972930369E+10,      /* I =*** */
(PID.TID 0000.0001)                 6.703877859373658E+10,      /* I =*** */
(PID.TID 0000.0001)                 7.167505933270183E+10,      /* I =*** */
(PID.TID 0000.0001)                 7.597507578906308E+10,      /* I =*** */
(PID.TID 0000.0001)                 7.987235447025922E+10,      /* I =*** */
(PID.TID 0000.0001)                 8.331295262617410E+10,      /* I =*** */
(PID.TID 0000.0001)                 8.625157736324193E+10,      /* I =*** */
(PID.TID 0000.0001)                 8.865010184129871E+10,      /* I =*** */
(PID.TID 0000.0001)                 9.047729707358572E+10,      /* I =*** */
(PID.TID 0000.0001)                 9.170912196569034E+10,      /* I =*** */
(PID.TID 0000.0001)                 9.232920428260213E+10,      /* I =*** */
(PID.TID 0000.0001)                 9.232920428256609E+10,      /* I =*** */
(PID.TID 0000.0001)                 9.170912196569034E+10,      /* I =*** */
(PID.TID 0000.0001)                 9.047729707358572E+10,      /* I =*** */
(PID.TID 0000.0001)                 8.865010184129871E+10,      /* I =*** */
(PID.TID 0000.0001)                 8.625157736324193E+10,      /* I =*** */
(PID.TID 0000.0001)                 8.331295262613806E+10,      /* I =*** */
(PID.TID 0000.0001)                 7.987235447022318E+10,      /* I =*** */
(PID.TID 0000.0001)                 7.597507578906308E+10,      /* I =*** */
(PID.TID 0000.0001)                 7.167505933266579E+10,      /* I =*** */
(PID.TID 0000.0001)                 6.703877859373658E+10,      /* I =*** */
(PID.TID 0000.0001)                 6.215369972933973E+10,      /* I =*** */
(PID.TID 0000.0001)                 5.714531235249125E+10,      /* I =*** */
(PID.TID 0000.0001)                 5.220923003176699E+10,      /* I =*** */
(PID.TID 0000.0001)                 4.766459252985624E+10,      /* I =*** */
(PID.TID 0000.0001)                 4.401452325760989E+10,      /* I =*** */
(PID.TID 0000.0001)                 4.192037169898667E+10,      /* I =*** */
(PID.TID 0000.0001)                 1.401900702255611E+10,      /* I =*** */
(PID.TID 0000.0001)                 2.459906945574446E+10,      /* I =*** */
(PID.TID 0000.0001)                 3.378518544307869E+10,      /* I =*** */
(PID.TID 0000.0001)                 4.192037169898667E+10,      /* I =*** */
(PID.TID 0000.0001)                 4.925938996118163E+10,      /* I =*** */
(PID.TID 0000.0001)                 5.594154126607553E+10,      /* I =*** */
(PID.TID 0000.0001)                 6.203683527772523E+10,      /* I =*** */
(PID.TID 0000.0001)                 6.757541173817516E+10,      /* I =*** */
(PID.TID 0000.0001)                 7.256353271748119E+10,      /* I =*** */
(PID.TID 0000.0001)                 7.699293007098555E+10,      /* I =*** */
(PID.TID 0000.0001)                 8.084683449728902E+10,      /* I =*** */
(PID.TID 0000.0001)                 8.410423102796223E+10,      /* I =*** */
(PID.TID 0000.0001)                 8.674306976737517E+10,      /* I =*** */
(PID.TID 0000.0001)                 8.874277443041928E+10,      /* I =*** */
(PID.TID 0000.0001)                 9.008620045350865E+10,      /* I =*** */
(PID.TID 0000.0001)                 9.076111290418457E+10,      /* I =*** */
(PID.TID 0000.0001)                 9.076111290422060E+10,      /* I =*** */
(PID.TID 0000.0001)                 9.008620045354469E+10,      /* I =*** */
(PID.TID 0000.0001)                 8.874277443041928E+10,      /* I =*** */
(PID.TID 0000.0001)                 8.674306976741121E+10,      /* I =*** */
(PID.TID 0000.0001)                 8.410423102799828E+10,      /* I =*** */
(PID.TID 0000.0001)                 8.084683449728902E+10,      /* I =*** */
(PID.TID 0000.0001)                 7.699293007098555E+10,      /* I =*** */
(PID.TID 0000.0001)                 7.256353271748119E+10,      /* I =*** */
(PID.TID 0000.0001)                 6.757541173817516E+10,      /* I =*** */
(PID.TID 0000.0001)                 6.203683527772523E+10,      /* I =*** */
(PID.TID 0000.0001)                 5.594154126611156E+10,      /* I =*** */
(PID.TID 0000.0001)                 4.925938996118163E+10,      /* I =*** */
(PID.TID 0000.0001)                 4.192037169898667E+10,      /* I =*** */
(PID.TID 0000.0001)                 3.378518544304265E+10,      /* I =*** */
(PID.TID 0000.0001)                 2.459906945574446E+10,      /* I =*** */
(PID.TID 0000.0001)                 1.401900702259215E+10,      /* I =*** */
(PID.TID 0000.0001)                 4.925938996118163E+10,      /* I =*** */
(PID.TID 0000.0001)                 5.077234053174238E+10,      /* I =*** */
(PID.TID 0000.0001)                 5.353037267574563E+10,      /* I =*** */
(PID.TID 0000.0001)                 5.714531235245521E+10,      /* I =*** */
(PID.TID 0000.0001)                 6.125259462314511E+10,      /* I =*** */
(PID.TID 0000.0001)                 6.556931309633417E+10,      /* I =*** */
(PID.TID 0000.0001)                 6.989166670270824E+10,      /* I =*** */
(PID.TID 0000.0001)                 7.407378391965518E+10,      /* I =*** */
(PID.TID 0000.0001)                 7.800802871997223E+10,      /* I =*** */
(PID.TID 0000.0001)                 8.161143484441284E+10,      /* I =*** */
(PID.TID 0000.0001)                 8.481751304090741E+10,      /* I =*** */
(PID.TID 0000.0001)                 8.757174167036623E+10,      /* I =*** */
(PID.TID 0000.0001)                 8.982934837778833E+10,      /* I =*** */
(PID.TID 0000.0001)                 9.155442926157257E+10,      /* I =*** */
(PID.TID 0000.0001)                 9.271978624749503E+10,      /* I =*** */
(PID.TID 0000.0001)     2 @  9.330709899483766E+10,             /* I =***:*** */
(PID.TID 0000.0001)                 9.271978624745898E+10,      /* I =*** */
(PID.TID 0000.0001)                 9.155442926157257E+10,      /* I =*** */
(PID.TID 0000.0001)                 8.982934837778833E+10,      /* I =*** */
(PID.TID 0000.0001)                 8.757174167036623E+10,      /* I =*** */
(PID.TID 0000.0001)                 8.481751304090741E+10,      /* I =*** */
(PID.TID 0000.0001)                 8.161143484437680E+10,      /* I =*** */
(PID.TID 0000.0001)                 7.800802871997223E+10,      /* I =*** */
(PID.TID 0000.0001)                 7.407378391965518E+10,      /* I =*** */
(PID.TID 0000.0001)                 6.989166670270824E+10,      /* I =*** */
(PID.TID 0000.0001)                 6.556931309633417E+10,      /* I =*** */
(PID.TID 0000.0001)                 6.125259462318115E+10,      /* I =*** */
(PID.TID 0000.0001)                 5.714531235245521E+10,      /* I =*** */
(PID.TID 0000.0001)                 5.353037267574563E+10,      /* I =*** */
(PID.TID 0000.0001)                 5.077234053177842E+10,      /* I =*** */
(PID.TID 0000.0001)                 4.925938996118163E+10,      /* I =*** */
(PID.TID 0000.0001)                 7.256353271748119E+10,      /* I =*** */
(PID.TID 0000.0001)                 7.316560555603816E+10,      /* I =*** */
(PID.TID 0000.0001)                 7.432809861291336E+10,      /* I =*** */
(PID.TID 0000.0001)                 7.597507578906308E+10,      /* I =*** */
(PID.TID 0000.0001)                 7.800802871993619E+10,      /* I =*** */
(PID.TID 0000.0001)                 8.031792520226384E+10,      /* I =*** */
(PID.TID 0000.0001)                 8.279477205479343E+10,      /* I =*** */
(PID.TID 0000.0001)                 8.533379325707961E+10,      /* I =*** */
(PID.TID 0000.0001)                 8.783871201160951E+10,      /* I =*** */
(PID.TID 0000.0001)                 9.022313873522023E+10,      /* I =*** */
(PID.TID 0000.0001)                 9.241098780606058E+10,      /* I =*** */
(PID.TID 0000.0001)                 9.433654646922043E+10,      /* I =*** */
(PID.TID 0000.0001)                 9.594452469251483E+10,      /* I =*** */
(PID.TID 0000.0001)                 9.719020454870135E+10,      /* I =*** */
(PID.TID 0000.0001)                 9.803968493821149E+10,      /* I =*** */
(PID.TID 0000.0001)                 9.847017339810080E+10,      /* I =*** */
(PID.TID 0000.0001)                 9.847017339806476E+10,      /* I =*** */
(PID.TID 0000.0001)                 9.803968493821149E+10,      /* I =*** */
(PID.TID 0000.0001)                 9.719020454873740E+10,      /* I =*** */
(PID.TID 0000.0001)                 9.594452469255087E+10,      /* I =*** */
(PID.TID 0000.0001)                 9.433654646922043E+10,      /* I =*** */
(PID.TID 0000.0001)                 9.241098780606058E+10,      /* I =*** */
(PID.TID 0000.0001)                 9.022313873522023E+10,      /* I =*** */
(PID.TID 0000.0001)                 8.783871201160951E+10,      /* I =*** */
(PID.TID 0000.0001)                 8.533379325707961E+10,      /* I =*** */
(PID.TID 0000.0001)                 8.279477205479343E+10,      /* I =*** */
(PID.TID 0000.0001)                 8.031792520226384E+10,      /* I =*** */
(PID.TID 0000.0001)                 7.800802871997223E+10,      /* I =*** */
(PID.TID 0000.0001)                 7.597507578906308E+10,      /* I =*** */
(PID.TID 0000.0001)                 7.432809861298544E+10,      /* I =*** */
(PID.TID 0000.0001)                 7.316560555600214E+10,      /* I =*** */
(PID.TID 0000.0001)                 7.256353271748119E+10,      /* I =*** */
(PID.TID 0000.0001)                 8.674306976737517E+10,      /* I =*** */
(PID.TID 0000.0001)                 8.707289939726053E+10,      /* I =*** */
(PID.TID 0000.0001)                 8.771796996822122E+10,      /* I =*** */
(PID.TID 0000.0001)                 8.865010184133475E+10,      /* I =*** */
(PID.TID 0000.0001)                 8.982934837778833E+10,      /* I =*** */
(PID.TID 0000.0001)                 9.120636580252011E+10,      /* I =*** */
(PID.TID 0000.0001)                 9.272503093370717E+10,      /* I =*** */
(PID.TID 0000.0001)                 9.432506641773729E+10,      /* I =*** */
(PID.TID 0000.0001)                 9.594452469251483E+10,      /* I =*** */
(PID.TID 0000.0001)                 9.752206662013898E+10,      /* I =*** */
(PID.TID 0000.0001)                 9.899902549681102E+10,      /* I =*** */
(PID.TID 0000.0001)                 1.003212683917232E+11,      /* I =*** */
(PID.TID 0000.0001)                 1.014408632438172E+11,      /* I =*** */
(PID.TID 0000.0001)                 1.023175444268777E+11,      /* I =*** */
(PID.TID 0000.0001)                 1.029199524752013E+11,      /* I =*** */
(PID.TID 0000.0001)                 1.032266241858783E+11,      /* I =*** */
(PID.TID 0000.0001)                 1.032266241858423E+11,      /* I =*** */
(PID.TID 0000.0001)                 1.029199524752373E+11,      /* I =*** */
(PID.TID 0000.0001)                 1.023175444268777E+11,      /* I =*** */
(PID.TID 0000.0001)                 1.014408632438172E+11,      /* I =*** */
(PID.TID 0000.0001)                 1.003212683916871E+11,      /* I =*** */
(PID.TID 0000.0001)                 9.899902549681102E+10,      /* I =*** */
(PID.TID 0000.0001)                 9.752206662017502E+10,      /* I =*** */
(PID.TID 0000.0001)                 9.594452469251483E+10,      /* I =*** */
(PID.TID 0000.0001)                 9.432506641773729E+10,      /* I =*** */
(PID.TID 0000.0001)                 9.272503093367113E+10,      /* I =*** */
(PID.TID 0000.0001)                 9.120636580252011E+10,      /* I =*** */
(PID.TID 0000.0001)                 8.982934837778833E+10,      /* I =*** */
(PID.TID 0000.0001)                 8.865010184129871E+10,      /* I =*** */
(PID.TID 0000.0001)                 8.771796996818518E+10,      /* I =*** */
(PID.TID 0000.0001)                 8.707289939726053E+10,      /* I =*** */
(PID.TID 0000.0001)                 8.674306976737517E+10,      /* I =*** */
(PID.TID 0000.0001)                 9.076111290422060E+10,      /* I =*** */
(PID.TID 0000.0001)                 9.103111035233499E+10,      /* I =*** */
(PID.TID 0000.0001)                 9.156064070993231E+10,      /* I =*** */
(PID.TID 0000.0001)                 9.232920428260213E+10,      /* I =*** */
(PID.TID 0000.0001)                 9.330709899483766E+10,      /* I =*** */
(PID.TID 0000.0001)                 9.445660930090860E+10,      /* I =*** */
(PID.TID 0000.0001)                 9.573349030317511E+10,      /* I =*** */
(PID.TID 0000.0001)                 9.708868016530809E+10,      /* I =*** */
(PID.TID 0000.0001)                 9.847017339806476E+10,      /* I =*** */
(PID.TID 0000.0001)                 9.982498936271980E+10,      /* I =*** */
(PID.TID 0000.0001)                 1.011011716698855E+11,      /* I =*** */
(PID.TID 0000.0001)                 1.022497537646060E+11,      /* I =*** */
(PID.TID 0000.0001)                 1.032266241858423E+11,      /* I =*** */
(PID.TID 0000.0001)                 1.039942233001552E+11,      /* I =*** */
(PID.TID 0000.0001)                 1.045230037451501E+11,      /* I =*** */
(PID.TID 0000.0001)     2 @  1.047926024841940E+11,             /* I =***:*** */
(PID.TID 0000.0001)                 1.045230037451861E+11,      /* I =*** */
(PID.TID 0000.0001)                 1.039942233001552E+11,      /* I =*** */
(PID.TID 0000.0001)                 1.032266241858783E+11,      /* I =*** */
(PID.TID 0000.0001)                 1.022497537646060E+11,      /* I =*** */
(PID.TID 0000.0001)                 1.011011716699215E+11,      /* I =*** */
(PID.TID 0000.0001)                 9.982498936268376E+10,      /* I =*** */
(PID.TID 0000.0001)                 9.847017339806476E+10,      /* I =*** */
(PID.TID 0000.0001)                 9.708868016527205E+10,      /* I =*** */
(PID.TID 0000.0001)                 9.573349030313907E+10,      /* I =*** */
(PID.TID 0000.0001)                 9.445660930090860E+10,      /* I =*** */
(PID.TID 0000.0001)                 9.330709899483766E+10,      /* I =*** */
(PID.TID 0000.0001)                 9.232920428256609E+10,      /* I =*** */
(PID.TID 0000.0001)                 9.156064070993231E+10,      /* I =*** */
(PID.TID 0000.0001)                 9.103111035233499E+10,      /* I =*** */
(PID.TID 0000.0001)                 9.076111290418457E+10,      /* I =*** */
(PID.TID 0000.0001)                 8.410423102799828E+10,      /* I =*** */
(PID.TID 0000.0001)                 8.447677539246103E+10,      /* I =*** */
(PID.TID 0000.0001)                 8.520397184519502E+10,      /* I =*** */
(PID.TID 0000.0001)                 8.625157736320589E+10,      /* I =*** */
(PID.TID 0000.0001)                 8.757174167036623E+10,      /* I =*** */
(PID.TID 0000.0001)                 8.910641714496939E+10,      /* I =*** */
(PID.TID 0000.0001)                 9.079090192400487E+10,      /* I =*** */
(PID.TID 0000.0001)                 9.255713331730203E+10,      /* I =*** */
(PID.TID 0000.0001)                 9.433654646922043E+10,      /* I =*** */
(PID.TID 0000.0001)                 9.606247471973146E+10,      /* I =*** */
(PID.TID 0000.0001)                 9.767215757505988E+10,      /* I =*** */
(PID.TID 0000.0001)                 9.910844509259473E+10,      /* I =*** */
(PID.TID 0000.0001)                 1.003212683917232E+11,      /* I =*** */
(PID.TID 0000.0001)                 1.012689103619959E+11,      /* I =*** */
(PID.TID 0000.0001)                 1.019190764103736E+11,      /* I =*** */
(PID.TID 0000.0001)     2 @  1.022497537646060E+11,             /* I =***:*** */
(PID.TID 0000.0001)                 1.019190764103376E+11,      /* I =*** */
(PID.TID 0000.0001)                 1.012689103619598E+11,      /* I =*** */
(PID.TID 0000.0001)                 1.003212683916871E+11,      /* I =*** */
(PID.TID 0000.0001)                 9.910844509259473E+10,      /* I =*** */
(PID.TID 0000.0001)                 9.767215757505988E+10,      /* I =*** */
(PID.TID 0000.0001)                 9.606247471973146E+10,      /* I =*** */
(PID.TID 0000.0001)                 9.433654646922043E+10,      /* I =*** */
(PID.TID 0000.0001)                 9.255713331730203E+10,      /* I =*** */
(PID.TID 0000.0001)                 9.079090192400487E+10,      /* I =*** */
(PID.TID 0000.0001)                 8.910641714496939E+10,      /* I =*** */
(PID.TID 0000.0001)                 8.757174167036623E+10,      /* I =*** */
(PID.TID 0000.0001)                 8.625157736324193E+10,      /* I =*** */
(PID.TID 0000.0001)                 8.520397184519502E+10,      /* I =*** */
(PID.TID 0000.0001)                 8.447677539246103E+10,      /* I =*** */
(PID.TID 0000.0001)                 8.410423102803432E+10,      /* I =*** */
(PID.TID 0000.0001)                 6.757541173817516E+10,      /* I =*** */
(PID.TID 0000.0001)                 6.830648821282825E+10,      /* I =*** */
(PID.TID 0000.0001)                 6.970852823518779E+10,      /* I =*** */
(PID.TID 0000.0001)                 7.167505933266579E+10,      /* I =*** */
(PID.TID 0000.0001)                 7.407378391965518E+10,      /* I =*** */
(PID.TID 0000.0001)                 7.676559153402333E+10,      /* I =*** */
(PID.TID 0000.0001)                 7.961744142441241E+10,      /* I =*** */
(PID.TID 0000.0001)                 8.250883164798820E+10,      /* I =*** */
(PID.TID 0000.0001)                 8.533379325707961E+10,      /* I =*** */
(PID.TID 0000.0001)                 8.800057596473148E+10,      /* I =*** */
(PID.TID 0000.0001)                 9.043054958589890E+10,      /* I =*** */
(PID.TID 0000.0001)                 9.255713331733807E+10,      /* I =*** */
(PID.TID 0000.0001)                 9.432506641773729E+10,      /* I =*** */
(PID.TID 0000.0001)                 9.569005670076813E+10,      /* I =*** */
(PID.TID 0000.0001)                 9.661871769577347E+10,      /* I =*** */
(PID.TID 0000.0001)     2 @  9.708868016527205E+10,             /* I =***:*** */
(PID.TID 0000.0001)                 9.661871769577347E+10,      /* I =*** */
(PID.TID 0000.0001)                 9.569005670073209E+10,      /* I =*** */
(PID.TID 0000.0001)                 9.432506641773729E+10,      /* I =*** */
(PID.TID 0000.0001)                 9.255713331730203E+10,      /* I =*** */
(PID.TID 0000.0001)                 9.043054958589890E+10,      /* I =*** */
(PID.TID 0000.0001)                 8.800057596473148E+10,      /* I =*** */
(PID.TID 0000.0001)                 8.533379325707961E+10,      /* I =*** */
(PID.TID 0000.0001)                 8.250883164795216E+10,      /* I =*** */
(PID.TID 0000.0001)                 7.961744142437637E+10,      /* I =*** */
(PID.TID 0000.0001)                 7.676559153402333E+10,      /* I =*** */
(PID.TID 0000.0001)                 7.407378391965518E+10,      /* I =*** */
(PID.TID 0000.0001)                 7.167505933266579E+10,      /* I =*** */
(PID.TID 0000.0001)                 6.970852823515175E+10,      /* I =*** */
(PID.TID 0000.0001)                 6.830648821282825E+10,      /* I =*** */
(PID.TID 0000.0001)                 6.757541173817516E+10,      /* I =*** */
(PID.TID 0000.0001)                 4.192037169898667E+10,      /* I =*** */
(PID.TID 0000.0001)                 4.401452325760989E+10,      /* I =*** */
(PID.TID 0000.0001)                 4.766459252985624E+10,      /* I =*** */
(PID.TID 0000.0001)                 5.220923003176699E+10,      /* I =*** */
(PID.TID 0000.0001)                 5.714531235245521E+10,      /* I =*** */
(PID.TID 0000.0001)                 6.215369972930369E+10,      /* I =*** */
(PID.TID 0000.0001)                 6.703877859373658E+10,      /* I =*** */
(PID.TID 0000.0001)                 7.167505933270183E+10,      /* I =*** */
(PID.TID 0000.0001)                 7.597507578906308E+10,      /* I =*** */
(PID.TID 0000.0001)                 7.987235447025922E+10,      /* I =*** */
(PID.TID 0000.0001)                 8.331295262617410E+10,      /* I =*** */
(PID.TID 0000.0001)                 8.625157736324193E+10,      /* I =*** */
(PID.TID 0000.0001)                 8.865010184129871E+10,      /* I =*** */
(PID.TID 0000.0001)                 9.047729707358572E+10,      /* I =*** */
(PID.TID 0000.0001)                 9.170912196569034E+10,      /* I =*** */
(PID.TID 0000.0001)                 9.232920428260213E+10,      /* I =*** */
(PID.TID 0000.0001)                 9.232920428256609E+10,      /* I =*** */
(PID.TID 0000.0001)                 9.170912196569034E+10,      /* I =*** */
(PID.TID 0000.0001)                 9.047729707358572E+10,      /* I =*** */
(PID.TID 0000.0001)                 8.865010184129871E+10,      /* I =*** */
(PID.TID 0000.0001)                 8.625157736324193E+10,      /* I =*** */
(PID.TID 0000.0001)                 8.331295262613806E+10,      /* I =*** */
(PID.TID 0000.0001)                 7.987235447022318E+10,      /* I =*** */
(PID.TID 0000.0001)                 7.597507578906308E+10,      /* I =*** */
(PID.TID 0000.0001)                 7.167505933266579E+10,      /* I =*** */
(PID.TID 0000.0001)                 6.703877859373658E+10,      /* I =*** */
(PID.TID 0000.0001)                 6.215369972933973E+10,      /* I =*** */
(PID.TID 0000.0001)                 5.714531235249125E+10,      /* I =*** */
(PID.TID 0000.0001)                 5.220923003176699E+10,      /* I =*** */
(PID.TID 0000.0001)                 4.766459252985624E+10,      /* I =*** */
(PID.TID 0000.0001)                 4.401452325760989E+10,      /* I =*** */
(PID.TID 0000.0001)                 4.192037169898667E+10       /* I =*** */
(PID.TID 0000.0001)     ;
(PID.TID 0000.0001) rA =  /* rA(1,:,1,:) ( m - cartesian, degrees - spherical ) */
(PID.TID 0000.0001)                 1.401900702255611E+10,      /* J =  1 */
(PID.TID 0000.0001)                 2.459906945574446E+10,      /* J =  2 */
(PID.TID 0000.0001)                 3.378518544307869E+10,      /* J =  3 */
(PID.TID 0000.0001)                 4.192037169898667E+10       /* J =  4 */
(PID.TID 0000.0001)     ;
(PID.TID 0000.0001) rAw =  /* rAw(:,1,:,1) ( m - cartesian, degrees - spherical ) */
(PID.TID 0000.0001)                 1.216690346714270E+10,      /* I =  1 */
(PID.TID 0000.0001)                 1.974052138506315E+10,      /* I =  2 */
(PID.TID 0000.0001)                 2.943712825252015E+10,      /* I =  3 */
(PID.TID 0000.0001)                 3.801790263324359E+10,      /* I =  4 */
(PID.TID 0000.0001)                 4.571243814189866E+10,      /* I =  5 */
(PID.TID 0000.0001)                 5.269930713599979E+10,      /* I =  6 */
(PID.TID 0000.0001)                 5.907428494299063E+10,      /* I =  7 */
(PID.TID 0000.0001)                 6.488320895111514E+10,      /* I =  8 */
(PID.TID 0000.0001)                 7.014205907741882E+10,      /* I =  9 */
(PID.TID 0000.0001)                 7.484854821847499E+10,      /* I = 10 */
(PID.TID 0000.0001)                 7.898934631431560E+10,      /* I = 11 */
(PID.TID 0000.0001)                 8.254500894894537E+10,      /* I = 12 */
(PID.TID 0000.0001)                 8.549360686473492E+10,      /* I = 13 */
(PID.TID 0000.0001)                 8.781353403175085E+10,      /* I = 14 */
(PID.TID 0000.0001)                 8.948571540392021E+10,      /* I = 15 */
(PID.TID 0000.0001)                 9.049530583086168E+10,      /* I = 16 */
(PID.TID 0000.0001)                 9.083293515008307E+10,      /* I = 17 */
(PID.TID 0000.0001)                 9.049530583087070E+10,      /* I = 18 */
(PID.TID 0000.0001)                 8.948571540391121E+10,      /* I = 19 */
(PID.TID 0000.0001)                 8.781353403174185E+10,      /* I = 20 */
(PID.TID 0000.0001)                 8.549360686467184E+10,      /* I = 21 */
(PID.TID 0000.0001)                 8.254500894890933E+10,      /* I = 22 */
(PID.TID 0000.0001)                 7.898934631434262E+10,      /* I = 23 */
(PID.TID 0000.0001)                 7.484854821844795E+10,      /* I = 24 */
(PID.TID 0000.0001)                 7.014205907742783E+10,      /* I = 25 */
(PID.TID 0000.0001)                 6.488320895111514E+10,      /* I = 26 */
(PID.TID 0000.0001)                 5.907428494299063E+10,      /* I = 27 */
(PID.TID 0000.0001)                 5.269930713599078E+10,      /* I = 28 */
(PID.TID 0000.0001)                 4.571243814190767E+10,      /* I = 29 */
(PID.TID 0000.0001)                 3.801790263325260E+10,      /* I = 30 */
(PID.TID 0000.0001)                 2.943712825251114E+10,      /* I = 31 */
(PID.TID 0000.0001)                 1.974052138509018E+10,      /* I = 32 */
(PID.TID 0000.0001)                 4.909074590409593E+10,      /* I = 33 */
(PID.TID 0000.0001)                 4.986520121412141E+10,      /* I = 34 */
(PID.TID 0000.0001)                 5.204287050903931E+10,      /* I = 35 */
(PID.TID 0000.0001)                 5.527465317122717E+10,      /* I = 36 */
(PID.TID 0000.0001)                 5.917213486167289E+10,      /* I = 37 */
(PID.TID 0000.0001)                 6.340977594439144E+10,      /* I = 38 */
(PID.TID 0000.0001)                 6.774664001052962E+10,      /* I = 39 */
(PID.TID 0000.0001)                 7.201071051828903E+10,      /* I = 40 */
(PID.TID 0000.0001)                 7.607731167898732E+10,      /* I = 41 */
(PID.TID 0000.0001)                 7.985244550664505E+10,      /* I = 42 */
(PID.TID 0000.0001)                 8.326213236016757E+10,      /* I = 43 */
(PID.TID 0000.0001)                 8.624626394679582E+10,      /* I = 44 */
(PID.TID 0000.0001)                 8.875538179479057E+10,      /* I = 45 */
(PID.TID 0000.0001)                 9.074921899965959E+10,      /* I = 46 */
(PID.TID 0000.0001)                 9.219623581499365E+10,      /* I = 47 */
(PID.TID 0000.0001)                 9.307365326586650E+10,      /* I = 48 */
(PID.TID 0000.0001)                 9.336769520564153E+10,      /* I = 49 */
(PID.TID 0000.0001)                 9.307365326586650E+10,      /* I = 50 */
(PID.TID 0000.0001)                 9.219623581497563E+10,      /* I = 51 */
(PID.TID 0000.0001)                 9.074921899966859E+10,      /* I = 52 */
(PID.TID 0000.0001)                 8.875538179481760E+10,      /* I = 53 */
(PID.TID 0000.0001)                 8.624626394676880E+10,      /* I = 54 */
(PID.TID 0000.0001)                 8.326213236023064E+10,      /* I = 55 */
(PID.TID 0000.0001)                 7.985244550659999E+10,      /* I = 56 */
(PID.TID 0000.0001)                 7.607731167900534E+10,      /* I = 57 */
(PID.TID 0000.0001)                 7.201071051828903E+10,      /* I = 58 */
(PID.TID 0000.0001)                 6.774664001052061E+10,      /* I = 59 */
(PID.TID 0000.0001)                 6.340977594437342E+10,      /* I = 60 */
(PID.TID 0000.0001)                 5.917213486169992E+10,      /* I = 61 */
(PID.TID 0000.0001)                 5.527465317123617E+10,      /* I = 62 */
(PID.TID 0000.0001)                 5.204287050900327E+10,      /* I = 63 */
(PID.TID 0000.0001)                 4.986520121408537E+10,      /* I = 64 */
(PID.TID 0000.0001)                 7.248875782324815E+10,      /* I = 65 */
(PID.TID 0000.0001)                 7.279231679399365E+10,      /* I = 66 */
(PID.TID 0000.0001)                 7.368167655649474E+10,      /* I = 67 */
(PID.TID 0000.0001)                 7.509678831847641E+10,      /* I = 68 */
(PID.TID 0000.0001)                 7.694890654165292E+10,      /* I = 69 */
(PID.TID 0000.0001)                 7.913292536892735E+10,      /* I = 70 */
(PID.TID 0000.0001)                 8.153840828108624E+10,      /* I = 71 */
(PID.TID 0000.0001)                 8.405745909920529E+10,      /* I = 72 */
(PID.TID 0000.0001)                 8.658933893113814E+10,      /* I = 73 */
(PID.TID 0000.0001)                 8.904267216287007E+10,      /* I = 74 */
(PID.TID 0000.0001)                 9.133625108440211E+10,      /* I = 75 */
(PID.TID 0000.0001)                 9.339922083542212E+10,      /* I = 76 */
(PID.TID 0000.0001)                 9.517111234598198E+10,      /* I = 77 */
(PID.TID 0000.0001)                 9.660193530171867E+10,      /* I = 78 */
(PID.TID 0000.0001)                 9.765237883413150E+10,      /* I = 79 */
(PID.TID 0000.0001)                 9.829408090567543E+10,      /* I = 80 */
(PID.TID 0000.0001)                 9.850992024629108E+10,      /* I = 81 */
(PID.TID 0000.0001)                 9.829408090566643E+10,      /* I = 82 */
(PID.TID 0000.0001)                 9.765237883417654E+10,      /* I = 83 */
(PID.TID 0000.0001)                 9.660193530170966E+10,      /* I = 84 */
(PID.TID 0000.0001)                 9.517111234598198E+10,      /* I = 85 */
(PID.TID 0000.0001)                 9.339922083542212E+10,      /* I = 86 */
(PID.TID 0000.0001)                 9.133625108442915E+10,      /* I = 87 */
(PID.TID 0000.0001)                 8.904267216284305E+10,      /* I = 88 */
(PID.TID 0000.0001)                 8.658933893111111E+10,      /* I = 89 */
(PID.TID 0000.0001)                 8.405745909919627E+10,      /* I = 90 */
(PID.TID 0000.0001)                 8.153840828111327E+10,      /* I = 91 */
(PID.TID 0000.0001)                 7.913292536890033E+10,      /* I = 92 */
(PID.TID 0000.0001)                 7.694890654164391E+10,      /* I = 93 */
(PID.TID 0000.0001)                 7.509678831851245E+10,      /* I = 94 */
(PID.TID 0000.0001)                 7.368167655646770E+10,      /* I = 95 */
(PID.TID 0000.0001)                 7.279231679395761E+10,      /* I = 96 */
(PID.TID 0000.0001)                 8.669186205742538E+10,      /* I = 97 */
(PID.TID 0000.0001)                 8.685766201151035E+10,      /* I = 98 */
(PID.TID 0000.0001)                 8.734770119183551E+10,      /* I = 99 */
(PID.TID 0000.0001)                 8.814040875497484E+10,      /* I =100 */
(PID.TID 0000.0001)                 8.920144688867136E+10,      /* I =101 */
(PID.TID 0000.0001)                 9.048584877142091E+10,      /* I =102 */
(PID.TID 0000.0001)                 9.194055005879561E+10,      /* I =103 */
(PID.TID 0000.0001)                 9.350703696481783E+10,      /* I =104 */
(PID.TID 0000.0001)                 9.512391461452121E+10,      /* I =105 */
(PID.TID 0000.0001)                 9.672929195068874E+10,      /* I =106 */
(PID.TID 0000.0001)                 9.826295097121390E+10,      /* I =107 */
(PID.TID 0000.0001)                 9.966830565497348E+10,      /* I =108 */
(PID.TID 0000.0001)                 1.008941633474940E+11,      /* I =109 */
(PID.TID 0000.0001)                 1.018962902305423E+11,      /* I =110 */
(PID.TID 0000.0001)                 1.026387649994800E+11,      /* I =111 */
(PID.TID 0000.0001)                 1.030950900845666E+11,      /* I =112 */
(PID.TID 0000.0001)                 1.032490462723345E+11,      /* I =113 */
(PID.TID 0000.0001)                 1.030950900845756E+11,      /* I =114 */
(PID.TID 0000.0001)                 1.026387649994890E+11,      /* I =115 */
(PID.TID 0000.0001)                 1.018962902305873E+11,      /* I =116 */
(PID.TID 0000.0001)                 1.008941633475211E+11,      /* I =117 */
(PID.TID 0000.0001)                 9.966830565496446E+10,      /* I =118 */
(PID.TID 0000.0001)                 9.826295097118686E+10,      /* I =119 */
(PID.TID 0000.0001)                 9.672929195066171E+10,      /* I =120 */
(PID.TID 0000.0001)                 9.512391461453923E+10,      /* I =121 */
(PID.TID 0000.0001)                 9.350703696482683E+10,      /* I =122 */
(PID.TID 0000.0001)                 9.194055005878661E+10,      /* I =123 */
(PID.TID 0000.0001)                 9.048584877142992E+10,      /* I =124 */
(PID.TID 0000.0001)                 8.920144688865334E+10,      /* I =125 */
(PID.TID 0000.0001)                 8.814040875495682E+10,      /* I =126 */
(PID.TID 0000.0001)                 8.734770119188055E+10,      /* I =127 */
(PID.TID 0000.0001)                 8.685766201151035E+10,      /* I =128 */
(PID.TID 0000.0001)                 9.071447638299399E+10,      /* I =129 */
(PID.TID 0000.0001)                 9.085012105610597E+10,      /* I =130 */
(PID.TID 0000.0001)                 9.125179254955583E+10,      /* I =131 */
(PID.TID 0000.0001)                 9.190392048045309E+10,      /* I =132 */
(PID.TID 0000.0001)                 9.278126467409492E+10,      /* I =133 */
(PID.TID 0000.0001)                 9.384993610263170E+10,      /* I =134 */
(PID.TID 0000.0001)                 9.506874487174457E+10,      /* I =135 */
(PID.TID 0000.0001)                 9.639080978465117E+10,      /* I =136 */
(PID.TID 0000.0001)                 9.776536132335065E+10,      /* I =137 */
(PID.TID 0000.0001)                 9.913967116446748E+10,      /* I =138 */
(PID.TID 0000.0001)                 1.004610434085146E+11,      /* I =139 */
(PID.TID 0000.0001)                 1.016788034168886E+11,      /* I =140 */
(PID.TID 0000.0001)                 1.027462190489479E+11,      /* I =141 */
(PID.TID 0000.0001)                 1.036222871661027E+11,      /* I =142 */
(PID.TID 0000.0001)                 1.042733173971964E+11,      /* I =143 */
(PID.TID 0000.0001)                 1.046742473574501E+11,      /* I =144 */
(PID.TID 0000.0001)                 1.048096527455915E+11,      /* I =145 */
(PID.TID 0000.0001)                 1.046742473574591E+11,      /* I =146 */
(PID.TID 0000.0001)                 1.042733173971784E+11,      /* I =147 */
(PID.TID 0000.0001)                 1.036222871660937E+11,      /* I =148 */
(PID.TID 0000.0001)                 1.027462190489479E+11,      /* I =149 */
(PID.TID 0000.0001)                 1.016788034168886E+11,      /* I =150 */
(PID.TID 0000.0001)                 1.004610434084966E+11,      /* I =151 */
(PID.TID 0000.0001)                 9.913967116446748E+10,      /* I =152 */
(PID.TID 0000.0001)                 9.776536132332361E+10,      /* I =153 */
(PID.TID 0000.0001)                 9.639080978466919E+10,      /* I =154 */
(PID.TID 0000.0001)                 9.506874487171754E+10,      /* I =155 */
(PID.TID 0000.0001)                 9.384993610260466E+10,      /* I =156 */
(PID.TID 0000.0001)                 9.278126467408592E+10,      /* I =157 */
(PID.TID 0000.0001)                 9.190392048045309E+10,      /* I =158 */
(PID.TID 0000.0001)                 9.125179254954683E+10,      /* I =159 */
(PID.TID 0000.0001)                 9.085012105606993E+10,      /* I =160 */
(PID.TID 0000.0001)                 8.404959656062837E+10,      /* I =161 */
(PID.TID 0000.0001)                 8.423694814524229E+10,      /* I =162 */
(PID.TID 0000.0001)                 8.478995543419156E+10,      /* I =163 */
(PID.TID 0000.0001)                 8.568227064692918E+10,      /* I =164 */
(PID.TID 0000.0001)                 8.687244923850627E+10,      /* I =165 */
(PID.TID 0000.0001)                 8.830710010637584E+10,      /* I =166 */
(PID.TID 0000.0001)                 8.992442369919336E+10,      /* I =167 */
(PID.TID 0000.0001)                 9.165766698784360E+10,      /* I =168 */
(PID.TID 0000.0001)                 9.343821140062714E+10,      /* I =169 */
(PID.TID 0000.0001)                 9.519819736176830E+10,      /* I =170 */
(PID.TID 0000.0001)                 9.687271610510727E+10,      /* I =171 */
(PID.TID 0000.0001)                 9.840165325167386E+10,      /* I =172 */
(PID.TID 0000.0001)                 9.973126714696570E+10,      /* I =173 */
(PID.TID 0000.0001)                 1.008155548120687E+11,      /* I =174 */
(PID.TID 0000.0001)                 1.016174217634913E+11,      /* I =175 */
(PID.TID 0000.0001)                 1.021096424414193E+11,      /* I =176 */
(PID.TID 0000.0001)                 1.022756055022041E+11,      /* I =177 */
(PID.TID 0000.0001)                 1.021096424414012E+11,      /* I =178 */
(PID.TID 0000.0001)                 1.016174217635003E+11,      /* I =179 */
(PID.TID 0000.0001)                 1.008155548120777E+11,      /* I =180 */
(PID.TID 0000.0001)                 9.973126714698372E+10,      /* I =181 */
(PID.TID 0000.0001)                 9.840165325168286E+10,      /* I =182 */
(PID.TID 0000.0001)                 9.687271610514331E+10,      /* I =183 */
(PID.TID 0000.0001)                 9.519819736178632E+10,      /* I =184 */
(PID.TID 0000.0001)                 9.343821140059109E+10,      /* I =185 */
(PID.TID 0000.0001)                 9.165766698784360E+10,      /* I =186 */
(PID.TID 0000.0001)                 8.992442369920236E+10,      /* I =187 */
(PID.TID 0000.0001)                 8.830710010634882E+10,      /* I =188 */
(PID.TID 0000.0001)                 8.687244923847925E+10,      /* I =189 */
(PID.TID 0000.0001)                 8.568227064693820E+10,      /* I =190 */
(PID.TID 0000.0001)                 8.478995543419156E+10,      /* I =191 */
(PID.TID 0000.0001)                 8.423694814525130E+10,      /* I =192 */
(PID.TID 0000.0001)                 6.748840226738273E+10,      /* I =193 */
(PID.TID 0000.0001)                 6.785762228965186E+10,      /* I =194 */
(PID.TID 0000.0001)                 6.893429052929407E+10,      /* I =195 */
(PID.TID 0000.0001)                 7.063282762453648E+10,      /* I =196 */
(PID.TID 0000.0001)                 7.283130776162505E+10,      /* I =197 */
(PID.TID 0000.0001)                 7.539208669246643E+10,      /* I =198 */
(PID.TID 0000.0001)                 7.817800519391208E+10,      /* I =199 */
(PID.TID 0000.0001)                 8.106189722872533E+10,      /* I =200 */
(PID.TID 0000.0001)                 8.393053257714168E+10,      /* I =201 */
(PID.TID 0000.0001)                 8.668522207917874E+10,      /* I =202 */
(PID.TID 0000.0001)                 8.924097252669591E+10,      /* I =203 */
(PID.TID 0000.0001)                 9.152533954246133E+10,      /* I =204 */
(PID.TID 0000.0001)                 9.347751054428943E+10,      /* I =205 */
(PID.TID 0000.0001)                 9.504776953558653E+10,      /* I =206 */
(PID.TID 0000.0001)                 9.619730346663052E+10,      /* I =207 */
(PID.TID 0000.0001)                 9.689823457954172E+10,      /* I =208 */
(PID.TID 0000.0001)                 9.713377776174072E+10,      /* I =209 */
(PID.TID 0000.0001)                 9.689823457951468E+10,      /* I =210 */
(PID.TID 0000.0001)                 9.619730346663052E+10,      /* I =211 */
(PID.TID 0000.0001)                 9.504776953557753E+10,      /* I =212 */
(PID.TID 0000.0001)                 9.347751054425339E+10,      /* I =213 */
(PID.TID 0000.0001)                 9.152533954245232E+10,      /* I =214 */
(PID.TID 0000.0001)                 8.924097252668690E+10,      /* I =215 */
(PID.TID 0000.0001)                 8.668522207915172E+10,      /* I =216 */
(PID.TID 0000.0001)                 8.393053257718672E+10,      /* I =217 */
(PID.TID 0000.0001)                 8.106189722871632E+10,      /* I =218 */
(PID.TID 0000.0001)                 7.817800519388504E+10,      /* I =219 */
(PID.TID 0000.0001)                 7.539208669248445E+10,      /* I =220 */
(PID.TID 0000.0001)                 7.283130776157999E+10,      /* I =221 */
(PID.TID 0000.0001)                 7.063282762452747E+10,      /* I =222 */
(PID.TID 0000.0001)                 6.893429052933911E+10,      /* I =223 */
(PID.TID 0000.0001)                 6.785762228965186E+10,      /* I =224 */
(PID.TID 0000.0001)                 4.168532893152940E+10,      /* I =225 */
(PID.TID 0000.0001)                 4.277139654150195E+10,      /* I =226 */
(PID.TID 0000.0001)                 4.572298663459904E+10,      /* I =227 */
(PID.TID 0000.0001)                 4.988866449916054E+10,      /* I =228 */
(PID.TID 0000.0001)                 5.467231580449774E+10,      /* I =229 */
(PID.TID 0000.0001)                 5.966921269229353E+10,      /* I =230 */
(PID.TID 0000.0001)                 6.462993877221152E+10,      /* I =231 */
(PID.TID 0000.0001)                 6.939903912006009E+10,      /* I =232 */
(PID.TID 0000.0001)                 7.387277930931242E+10,      /* I =233 */
(PID.TID 0000.0001)                 7.797556405803633E+10,      /* I =234 */
(PID.TID 0000.0001)                 8.164783409187733E+10,      /* I =235 */
(PID.TID 0000.0001)                 8.484024620507198E+10,      /* I =236 */
(PID.TID 0000.0001)                 8.751117576832700E+10,      /* I =237 */
(PID.TID 0000.0001)                 8.962593924489761E+10,      /* I =238 */
(PID.TID 0000.0001)                 9.115685951897852E+10,      /* I =239 */
(PID.TID 0000.0001)                 9.208367574520467E+10,      /* I =240 */
(PID.TID 0000.0001)                 9.239403136821951E+10,      /* I =241 */
(PID.TID 0000.0001)                 9.208367574522269E+10,      /* I =242 */
(PID.TID 0000.0001)                 9.115685951896950E+10,      /* I =243 */
(PID.TID 0000.0001)                 8.962593924488861E+10,      /* I =244 */
(PID.TID 0000.0001)                 8.751117576829997E+10,      /* I =245 */
(PID.TID 0000.0001)                 8.484024620506297E+10,      /* I =246 */
(PID.TID 0000.0001)                 8.164783409188635E+10,      /* I =247 */
(PID.TID 0000.0001)                 7.797556405799127E+10,      /* I =248 */
(PID.TID 0000.0001)                 7.387277930931242E+10,      /* I =249 */
(PID.TID 0000.0001)                 6.939903912008713E+10,      /* I =250 */
(PID.TID 0000.0001)                 6.462993877222053E+10,      /* I =251 */
(PID.TID 0000.0001)                 5.966921269227551E+10,      /* I =252 */
(PID.TID 0000.0001)                 5.467231580448873E+10,      /* I =253 */
(PID.TID 0000.0001)                 4.988866449919658E+10,      /* I =254 */
(PID.TID 0000.0001)                 4.572298663462607E+10,      /* I =255 */
(PID.TID 0000.0001)                 4.277139654155600E+10,      /* I =256 */
(PID.TID 0000.0001)                 1.216690346714270E+10,      /* I =257 */
(PID.TID 0000.0001)                 1.974052138506315E+10,      /* I =258 */
(PID.TID 0000.0001)                 2.943712825252015E+10,      /* I =259 */
(PID.TID 0000.0001)                 3.801790263324359E+10,      /* I =260 */
(PID.TID 0000.0001)                 4.571243814189866E+10,      /* I =261 */
(PID.TID 0000.0001)                 5.269930713599979E+10,      /* I =262 */
(PID.TID 0000.0001)                 5.907428494299063E+10,      /* I =263 */
(PID.TID 0000.0001)                 6.488320895111514E+10,      /* I =264 */
(PID.TID 0000.0001)                 7.014205907741882E+10,      /* I =265 */
(PID.TID 0000.0001)                 7.484854821847499E+10,      /* I =266 */
(PID.TID 0000.0001)                 7.898934631431560E+10,      /* I =267 */
(PID.TID 0000.0001)                 8.254500894894537E+10,      /* I =268 */
(PID.TID 0000.0001)                 8.549360686473492E+10,      /* I =269 */
(PID.TID 0000.0001)                 8.781353403175085E+10,      /* I =270 */
(PID.TID 0000.0001)                 8.948571540392021E+10,      /* I =271 */
(PID.TID 0000.0001)                 9.049530583086168E+10,      /* I =272 */
(PID.TID 0000.0001)                 9.083293515008307E+10,      /* I =273 */
(PID.TID 0000.0001)                 9.049530583087070E+10,      /* I =274 */
(PID.TID 0000.0001)                 8.948571540391121E+10,      /* I =275 */
(PID.TID 0000.0001)                 8.781353403174185E+10,      /* I =276 */
(PID.TID 0000.0001)                 8.549360686467184E+10,      /* I =277 */
(PID.TID 0000.0001)                 8.254500894890933E+10,      /* I =278 */
(PID.TID 0000.0001)                 7.898934631434262E+10,      /* I =279 */
(PID.TID 0000.0001)                 7.484854821844795E+10,      /* I =280 */
(PID.TID 0000.0001)                 7.014205907742783E+10,      /* I =281 */
(PID.TID 0000.0001)                 6.488320895111514E+10,      /* I =282 */
(PID.TID 0000.0001)                 5.907428494299063E+10,      /* I =283 */
(PID.TID 0000.0001)                 5.269930713599078E+10,      /* I =284 */
(PID.TID 0000.0001)                 4.571243814190767E+10,      /* I =285 */
(PID.TID 0000.0001)                 3.801790263325260E+10,      /* I =286 */
(PID.TID 0000.0001)                 2.943712825251114E+10,      /* I =287 */
(PID.TID 0000.0001)                 1.974052138509018E+10,      /* I =288 */
(PID.TID 0000.0001)                 4.909074590409593E+10,      /* I =289 */
(PID.TID 0000.0001)                 4.986520121412141E+10,      /* I =290 */
(PID.TID 0000.0001)                 5.204287050903931E+10,      /* I =291 */
(PID.TID 0000.0001)                 5.527465317122717E+10,      /* I =292 */
(PID.TID 0000.0001)                 5.917213486167289E+10,      /* I =293 */
(PID.TID 0000.0001)                 6.340977594439144E+10,      /* I =294 */
(PID.TID 0000.0001)                 6.774664001052962E+10,      /* I =295 */
(PID.TID 0000.0001)                 7.201071051828903E+10,      /* I =296 */
(PID.TID 0000.0001)                 7.607731167898732E+10,      /* I =297 */
(PID.TID 0000.0001)                 7.985244550664505E+10,      /* I =298 */
(PID.TID 0000.0001)                 8.326213236016757E+10,      /* I =299 */
(PID.TID 0000.0001)                 8.624626394679582E+10,      /* I =300 */
(PID.TID 0000.0001)                 8.875538179479057E+10,      /* I =301 */
(PID.TID 0000.0001)                 9.074921899965959E+10,      /* I =302 */
(PID.TID 0000.0001)                 9.219623581499365E+10,      /* I =303 */
(PID.TID 0000.0001)                 9.307365326586650E+10,      /* I =304 */
(PID.TID 0000.0001)                 9.336769520564153E+10,      /* I =305 */
(PID.TID 0000.0001)                 9.307365326586650E+10,      /* I =306 */
(PID.TID 0000.0001)                 9.219623581497563E+10,      /* I =307 */
(PID.TID 0000.0001)                 9.074921899966859E+10,      /* I =308 */
(PID.TID 0000.0001)                 8.875538179481760E+10,      /* I =309 */
(PID.TID 0000.0001)                 8.624626394676880E+10,      /* I =310 */
(PID.TID 0000.0001)                 8.326213236023064E+10,      /* I =311 */
(PID.TID 0000.0001)                 7.985244550659999E+10,      /* I =312 */
(PID.TID 0000.0001)                 7.607731167900534E+10,      /* I =313 */
(PID.TID 0000.0001)                 7.201071051828903E+10,      /* I =314 */
(PID.TID 0000.0001)                 6.774664001052061E+10,      /* I =315 */
(PID.TID 0000.0001)                 6.340977594437342E+10,      /* I =316 */
(PID.TID 0000.0001)                 5.917213486169992E+10,      /* I =317 */
(PID.TID 0000.0001)                 5.527465317123617E+10,      /* I =318 */
(PID.TID 0000.0001)                 5.204287050900327E+10,      /* I =319 */
(PID.TID 0000.0001)                 4.986520121408537E+10,      /* I =320 */
(PID.TID 0000.0001)                 7.248875782324815E+10,      /* I =321 */
(PID.TID 0000.0001)                 7.279231679399365E+10,      /* I =322 */
(PID.TID 0000.0001)                 7.368167655649474E+10,      /* I =323 */
(PID.TID 0000.0001)                 7.509678831847641E+10,      /* I =324 */
(PID.TID 0000.0001)                 7.694890654165292E+10,      /* I =325 */
(PID.TID 0000.0001)                 7.913292536892735E+10,      /* I =326 */
(PID.TID 0000.0001)                 8.153840828108624E+10,      /* I =327 */
(PID.TID 0000.0001)                 8.405745909920529E+10,      /* I =328 */
(PID.TID 0000.0001)                 8.658933893113814E+10,      /* I =329 */
(PID.TID 0000.0001)                 8.904267216287007E+10,      /* I =330 */
(PID.TID 0000.0001)                 9.133625108440211E+10,      /* I =331 */
(PID.TID 0000.0001)                 9.339922083542212E+10,      /* I =332 */
(PID.TID 0000.0001)                 9.517111234598198E+10,      /* I =333 */
(PID.TID 0000.0001)                 9.660193530171867E+10,      /* I =334 */
(PID.TID 0000.0001)                 9.765237883413150E+10,      /* I =335 */
(PID.TID 0000.0001)                 9.829408090567543E+10,      /* I =336 */
(PID.TID 0000.0001)                 9.850992024629108E+10,      /* I =337 */
(PID.TID 0000.0001)                 9.829408090566643E+10,      /* I =338 */
(PID.TID 0000.0001)                 9.765237883417654E+10,      /* I =339 */
(PID.TID 0000.0001)                 9.660193530170966E+10,      /* I =340 */
(PID.TID 0000.0001)                 9.517111234598198E+10,      /* I =341 */
(PID.TID 0000.0001)                 9.339922083542212E+10,      /* I =342 */
(PID.TID 0000.0001)                 9.133625108442915E+10,      /* I =343 */
(PID.TID 0000.0001)                 8.904267216284305E+10,      /* I =344 */
(PID.TID 0000.0001)                 8.658933893111111E+10,      /* I =345 */
(PID.TID 0000.0001)                 8.405745909919627E+10,      /* I =346 */
(PID.TID 0000.0001)                 8.153840828111327E+10,      /* I =347 */
(PID.TID 0000.0001)                 7.913292536890033E+10,      /* I =348 */
(PID.TID 0000.0001)                 7.694890654164391E+10,      /* I =349 */
(PID.TID 0000.0001)                 7.509678831851245E+10,      /* I =350 */
(PID.TID 0000.0001)                 7.368167655646770E+10,      /* I =351 */
(PID.TID 0000.0001)                 7.279231679395761E+10,      /* I =352 */
(PID.TID 0000.0001)                 8.669186205742538E+10,      /* I =353 */
(PID.TID 0000.0001)                 8.685766201151035E+10,      /* I =354 */
(PID.TID 0000.0001)                 8.734770119183551E+10,      /* I =355 */
(PID.TID 0000.0001)                 8.814040875497484E+10,      /* I =356 */
(PID.TID 0000.0001)                 8.920144688867136E+10,      /* I =357 */
(PID.TID 0000.0001)                 9.048584877142091E+10,      /* I =358 */
(PID.TID 0000.0001)                 9.194055005879561E+10,      /* I =359 */
(PID.TID 0000.0001)                 9.350703696481783E+10,      /* I =360 */
(PID.TID 0000.0001)                 9.512391461452121E+10,      /* I =361 */
(PID.TID 0000.0001)                 9.672929195068874E+10,      /* I =362 */
(PID.TID 0000.0001)                 9.826295097121390E+10,      /* I =363 */
(PID.TID 0000.0001)                 9.966830565497348E+10,      /* I =364 */
(PID.TID 0000.0001)                 1.008941633474940E+11,      /* I =365 */
(PID.TID 0000.0001)                 1.018962902305423E+11,      /* I =366 */
(PID.TID 0000.0001)                 1.026387649994800E+11,      /* I =367 */
(PID.TID 0000.0001)                 1.030950900845666E+11,      /* I =368 */
(PID.TID 0000.0001)                 1.032490462723345E+11,      /* I =369 */
(PID.TID 0000.0001)                 1.030950900845756E+11,      /* I =370 */
(PID.TID 0000.0001)                 1.026387649994890E+11,      /* I =371 */
(PID.TID 0000.0001)                 1.018962902305873E+11,      /* I =372 */
(PID.TID 0000.0001)                 1.008941633475211E+11,      /* I =373 */
(PID.TID 0000.0001)                 9.966830565496446E+10,      /* I =374 */
(PID.TID 0000.0001)                 9.826295097118686E+10,      /* I =375 */
(PID.TID 0000.0001)                 9.672929195066171E+10,      /* I =376 */
(PID.TID 0000.0001)                 9.512391461453923E+10,      /* I =377 */
(PID.TID 0000.0001)                 9.350703696482683E+10,      /* I =378 */
(PID.TID 0000.0001)                 9.194055005878661E+10,      /* I =379 */
(PID.TID 0000.0001)                 9.048584877142992E+10,      /* I =380 */
(PID.TID 0000.0001)                 8.920144688865334E+10,      /* I =381 */
(PID.TID 0000.0001)                 8.814040875495682E+10,      /* I =382 */
(PID.TID 0000.0001)                 8.734770119188055E+10,      /* I =383 */
(PID.TID 0000.0001)                 8.685766201151035E+10,      /* I =384 */
(PID.TID 0000.0001)                 9.071447638299399E+10,      /* I =385 */
(PID.TID 0000.0001)                 9.085012105610597E+10,      /* I =386 */
(PID.TID 0000.0001)                 9.125179254955583E+10,      /* I =387 */
(PID.TID 0000.0001)                 9.190392048045309E+10,      /* I =388 */
(PID.TID 0000.0001)                 9.278126467409492E+10,      /* I =389 */
(PID.TID 0000.0001)                 9.384993610263170E+10,      /* I =390 */
(PID.TID 0000.0001)                 9.506874487174457E+10,      /* I =391 */
(PID.TID 0000.0001)                 9.639080978465117E+10,      /* I =392 */
(PID.TID 0000.0001)                 9.776536132335065E+10,      /* I =393 */
(PID.TID 0000.0001)                 9.913967116446748E+10,      /* I =394 */
(PID.TID 0000.0001)                 1.004610434085146E+11,      /* I =395 */
(PID.TID 0000.0001)                 1.016788034168886E+11,      /* I =396 */
(PID.TID 0000.0001)                 1.027462190489479E+11,      /* I =397 */
(PID.TID 0000.0001)                 1.036222871661027E+11,      /* I =398 */
(PID.TID 0000.0001)                 1.042733173971964E+11,      /* I =399 */
(PID.TID 0000.0001)                 1.046742473574501E+11,      /* I =400 */
(PID.TID 0000.0001)                 1.048096527455915E+11,      /* I =401 */
(PID.TID 0000.0001)                 1.046742473574591E+11,      /* I =402 */
(PID.TID 0000.0001)                 1.042733173971784E+11,      /* I =403 */
(PID.TID 0000.0001)                 1.036222871660937E+11,      /* I =404 */
(PID.TID 0000.0001)                 1.027462190489479E+11,      /* I =405 */
(PID.TID 0000.0001)                 1.016788034168886E+11,      /* I =406 */
(PID.TID 0000.0001)                 1.004610434084966E+11,      /* I =407 */
(PID.TID 0000.0001)                 9.913967116446748E+10,      /* I =408 */
(PID.TID 0000.0001)                 9.776536132332361E+10,      /* I =409 */
(PID.TID 0000.0001)                 9.639080978466919E+10,      /* I =410 */
(PID.TID 0000.0001)                 9.506874487171754E+10,      /* I =411 */
(PID.TID 0000.0001)                 9.384993610260466E+10,      /* I =412 */
(PID.TID 0000.0001)                 9.278126467408592E+10,      /* I =413 */
(PID.TID 0000.0001)                 9.190392048045309E+10,      /* I =414 */
(PID.TID 0000.0001)                 9.125179254954683E+10,      /* I =415 */
(PID.TID 0000.0001)                 9.085012105606993E+10,      /* I =416 */
(PID.TID 0000.0001)                 8.404959656062837E+10,      /* I =417 */
(PID.TID 0000.0001)                 8.423694814524229E+10,      /* I =418 */
(PID.TID 0000.0001)                 8.478995543419156E+10,      /* I =419 */
(PID.TID 0000.0001)                 8.568227064692918E+10,      /* I =420 */
(PID.TID 0000.0001)                 8.687244923850627E+10,      /* I =421 */
(PID.TID 0000.0001)                 8.830710010637584E+10,      /* I =422 */
(PID.TID 0000.0001)                 8.992442369919336E+10,      /* I =423 */
(PID.TID 0000.0001)                 9.165766698784360E+10,      /* I =424 */
(PID.TID 0000.0001)                 9.343821140062714E+10,      /* I =425 */
(PID.TID 0000.0001)                 9.519819736176830E+10,      /* I =426 */
(PID.TID 0000.0001)                 9.687271610510727E+10,      /* I =427 */
(PID.TID 0000.0001)                 9.840165325167386E+10,      /* I =428 */
(PID.TID 0000.0001)                 9.973126714696570E+10,      /* I =429 */
(PID.TID 0000.0001)                 1.008155548120687E+11,      /* I =430 */
(PID.TID 0000.0001)                 1.016174217634913E+11,      /* I =431 */
(PID.TID 0000.0001)                 1.021096424414193E+11,      /* I =432 */
(PID.TID 0000.0001)                 1.022756055022041E+11,      /* I =433 */
(PID.TID 0000.0001)                 1.021096424414012E+11,      /* I =434 */
(PID.TID 0000.0001)                 1.016174217635003E+11,      /* I =435 */
(PID.TID 0000.0001)                 1.008155548120777E+11,      /* I =436 */
(PID.TID 0000.0001)                 9.973126714698372E+10,      /* I =437 */
(PID.TID 0000.0001)                 9.840165325168286E+10,      /* I =438 */
(PID.TID 0000.0001)                 9.687271610514331E+10,      /* I =439 */
(PID.TID 0000.0001)                 9.519819736178632E+10,      /* I =440 */
(PID.TID 0000.0001)                 9.343821140059109E+10,      /* I =441 */
(PID.TID 0000.0001)                 9.165766698784360E+10,      /* I =442 */
(PID.TID 0000.0001)                 8.992442369920236E+10,      /* I =443 */
(PID.TID 0000.0001)                 8.830710010634882E+10,      /* I =444 */
(PID.TID 0000.0001)                 8.687244923847925E+10,      /* I =445 */
(PID.TID 0000.0001)                 8.568227064693820E+10,      /* I =446 */
(PID.TID 0000.0001)                 8.478995543419156E+10,      /* I =447 */
(PID.TID 0000.0001)                 8.423694814525130E+10,      /* I =448 */
(PID.TID 0000.0001)                 6.748840226738273E+10,      /* I =449 */
(PID.TID 0000.0001)                 6.785762228965186E+10,      /* I =450 */
(PID.TID 0000.0001)                 6.893429052929407E+10,      /* I =451 */
(PID.TID 0000.0001)                 7.063282762453648E+10,      /* I =452 */
(PID.TID 0000.0001)                 7.283130776162505E+10,      /* I =453 */
(PID.TID 0000.0001)                 7.539208669246643E+10,      /* I =454 */
(PID.TID 0000.0001)                 7.817800519391208E+10,      /* I =455 */
(PID.TID 0000.0001)                 8.106189722872533E+10,      /* I =456 */
(PID.TID 0000.0001)                 8.393053257714168E+10,      /* I =457 */
(PID.TID 0000.0001)                 8.668522207917874E+10,      /* I =458 */
(PID.TID 0000.0001)                 8.924097252669591E+10,      /* I =459 */
(PID.TID 0000.0001)                 9.152533954246133E+10,      /* I =460 */
(PID.TID 0000.0001)                 9.347751054428943E+10,      /* I =461 */
(PID.TID 0000.0001)                 9.504776953558653E+10,      /* I =462 */
(PID.TID 0000.0001)                 9.619730346663052E+10,      /* I =463 */
(PID.TID 0000.0001)                 9.689823457954172E+10,      /* I =464 */
(PID.TID 0000.0001)                 9.713377776174072E+10,      /* I =465 */
(PID.TID 0000.0001)                 9.689823457951468E+10,      /* I =466 */
(PID.TID 0000.0001)                 9.619730346663052E+10,      /* I =467 */
(PID.TID 0000.0001)                 9.504776953557753E+10,      /* I =468 */
(PID.TID 0000.0001)                 9.347751054425339E+10,      /* I =469 */
(PID.TID 0000.0001)                 9.152533954245232E+10,      /* I =470 */
(PID.TID 0000.0001)                 8.924097252668690E+10,      /* I =471 */
(PID.TID 0000.0001)                 8.668522207915172E+10,      /* I =472 */
(PID.TID 0000.0001)                 8.393053257718672E+10,      /* I =473 */
(PID.TID 0000.0001)                 8.106189722871632E+10,      /* I =474 */
(PID.TID 0000.0001)                 7.817800519388504E+10,      /* I =475 */
(PID.TID 0000.0001)                 7.539208669248445E+10,      /* I =476 */
(PID.TID 0000.0001)                 7.283130776157999E+10,      /* I =477 */
(PID.TID 0000.0001)                 7.063282762452747E+10,      /* I =478 */
(PID.TID 0000.0001)                 6.893429052933911E+10,      /* I =479 */
(PID.TID 0000.0001)                 6.785762228965186E+10,      /* I =480 */
(PID.TID 0000.0001)                 4.168532893152940E+10,      /* I =481 */
(PID.TID 0000.0001)                 4.277139654150195E+10,      /* I =482 */
(PID.TID 0000.0001)                 4.572298663459904E+10,      /* I =483 */
(PID.TID 0000.0001)                 4.988866449916054E+10,      /* I =484 */
(PID.TID 0000.0001)                 5.467231580449774E+10,      /* I =485 */
(PID.TID 0000.0001)                 5.966921269229353E+10,      /* I =486 */
(PID.TID 0000.0001)                 6.462993877221152E+10,      /* I =487 */
(PID.TID 0000.0001)                 6.939903912006009E+10,      /* I =488 */
(PID.TID 0000.0001)                 7.387277930931242E+10,      /* I =489 */
(PID.TID 0000.0001)                 7.797556405803633E+10,      /* I =490 */
(PID.TID 0000.0001)                 8.164783409187733E+10,      /* I =491 */
(PID.TID 0000.0001)                 8.484024620507198E+10,      /* I =492 */
(PID.TID 0000.0001)                 8.751117576832700E+10,      /* I =493 */
(PID.TID 0000.0001)                 8.962593924489761E+10,      /* I =494 */
(PID.TID 0000.0001)                 9.115685951897852E+10,      /* I =495 */
(PID.TID 0000.0001)                 9.208367574520467E+10,      /* I =496 */
(PID.TID 0000.0001)                 9.239403136821951E+10,      /* I =497 */
(PID.TID 0000.0001)                 9.208367574522269E+10,      /* I =498 */
(PID.TID 0000.0001)                 9.115685951896950E+10,      /* I =499 */
(PID.TID 0000.0001)                 8.962593924488861E+10,      /* I =500 */
(PID.TID 0000.0001)                 8.751117576829997E+10,      /* I =501 */
(PID.TID 0000.0001)                 8.484024620506297E+10,      /* I =502 */
(PID.TID 0000.0001)                 8.164783409188635E+10,      /* I =503 */
(PID.TID 0000.0001)                 7.797556405799127E+10,      /* I =504 */
(PID.TID 0000.0001)                 7.387277930931242E+10,      /* I =505 */
(PID.TID 0000.0001)                 6.939903912008713E+10,      /* I =506 */
(PID.TID 0000.0001)                 6.462993877222053E+10,      /* I =507 */
(PID.TID 0000.0001)                 5.966921269227551E+10,      /* I =508 */
(PID.TID 0000.0001)                 5.467231580448873E+10,      /* I =509 */
(PID.TID 0000.0001)                 4.988866449919658E+10,      /* I =510 */
(PID.TID 0000.0001)                 4.572298663462607E+10,      /* I =511 */
(PID.TID 0000.0001)                 4.277139654155600E+10,      /* I =512 */
(PID.TID 0000.0001)                 1.216690346714270E+10,      /* I =513 */
(PID.TID 0000.0001)                 1.974052138506315E+10,      /* I =514 */
(PID.TID 0000.0001)                 2.943712825252015E+10,      /* I =515 */
(PID.TID 0000.0001)                 3.801790263324359E+10,      /* I =516 */
(PID.TID 0000.0001)                 4.571243814189866E+10,      /* I =517 */
(PID.TID 0000.0001)                 5.269930713599979E+10,      /* I =518 */
(PID.TID 0000.0001)                 5.907428494299063E+10,      /* I =519 */
(PID.TID 0000.0001)                 6.488320895111514E+10,      /* I =520 */
(PID.TID 0000.0001)                 7.014205907741882E+10,      /* I =521 */
(PID.TID 0000.0001)                 7.484854821847499E+10,      /* I =522 */
(PID.TID 0000.0001)                 7.898934631431560E+10,      /* I =523 */
(PID.TID 0000.0001)                 8.254500894894537E+10,      /* I =524 */
(PID.TID 0000.0001)                 8.549360686473492E+10,      /* I =525 */
(PID.TID 0000.0001)                 8.781353403175085E+10,      /* I =526 */
(PID.TID 0000.0001)                 8.948571540392021E+10,      /* I =527 */
(PID.TID 0000.0001)                 9.049530583086168E+10,      /* I =528 */
(PID.TID 0000.0001)                 9.083293515008307E+10,      /* I =529 */
(PID.TID 0000.0001)                 9.049530583087070E+10,      /* I =530 */
(PID.TID 0000.0001)                 8.948571540391121E+10,      /* I =531 */
(PID.TID 0000.0001)                 8.781353403174185E+10,      /* I =532 */
(PID.TID 0000.0001)                 8.549360686467184E+10,      /* I =533 */
(PID.TID 0000.0001)                 8.254500894890933E+10,      /* I =534 */
(PID.TID 0000.0001)                 7.898934631434262E+10,      /* I =535 */
(PID.TID 0000.0001)                 7.484854821844795E+10,      /* I =536 */
(PID.TID 0000.0001)                 7.014205907742783E+10,      /* I =537 */
(PID.TID 0000.0001)                 6.488320895111514E+10,      /* I =538 */
(PID.TID 0000.0001)                 5.907428494299063E+10,      /* I =539 */
(PID.TID 0000.0001)                 5.269930713599078E+10,      /* I =540 */
(PID.TID 0000.0001)                 4.571243814190767E+10,      /* I =541 */
(PID.TID 0000.0001)                 3.801790263325260E+10,      /* I =542 */
(PID.TID 0000.0001)                 2.943712825251114E+10,      /* I =543 */
(PID.TID 0000.0001)                 1.974052138509018E+10,      /* I =544 */
(PID.TID 0000.0001)                 4.909074590409593E+10,      /* I =545 */
(PID.TID 0000.0001)                 4.986520121412141E+10,      /* I =546 */
(PID.TID 0000.0001)                 5.204287050903931E+10,      /* I =547 */
(PID.TID 0000.0001)                 5.527465317122717E+10,      /* I =548 */
(PID.TID 0000.0001)                 5.917213486167289E+10,      /* I =549 */
(PID.TID 0000.0001)                 6.340977594439144E+10,      /* I =550 */
(PID.TID 0000.0001)                 6.774664001052962E+10,      /* I =551 */
(PID.TID 0000.0001)                 7.201071051828903E+10,      /* I =552 */
(PID.TID 0000.0001)                 7.607731167898732E+10,      /* I =553 */
(PID.TID 0000.0001)                 7.985244550664505E+10,      /* I =554 */
(PID.TID 0000.0001)                 8.326213236016757E+10,      /* I =555 */
(PID.TID 0000.0001)                 8.624626394679582E+10,      /* I =556 */
(PID.TID 0000.0001)                 8.875538179479057E+10,      /* I =557 */
(PID.TID 0000.0001)                 9.074921899965959E+10,      /* I =558 */
(PID.TID 0000.0001)                 9.219623581499365E+10,      /* I =559 */
(PID.TID 0000.0001)                 9.307365326586650E+10,      /* I =560 */
(PID.TID 0000.0001)                 9.336769520564153E+10,      /* I =561 */
(PID.TID 0000.0001)                 9.307365326586650E+10,      /* I =562 */
(PID.TID 0000.0001)                 9.219623581497563E+10,      /* I =563 */
(PID.TID 0000.0001)                 9.074921899966859E+10,      /* I =564 */
(PID.TID 0000.0001)                 8.875538179481760E+10,      /* I =565 */
(PID.TID 0000.0001)                 8.624626394676880E+10,      /* I =566 */
(PID.TID 0000.0001)                 8.326213236023064E+10,      /* I =567 */
(PID.TID 0000.0001)                 7.985244550659999E+10,      /* I =568 */
(PID.TID 0000.0001)                 7.607731167900534E+10,      /* I =569 */
(PID.TID 0000.0001)                 7.201071051828903E+10,      /* I =570 */
(PID.TID 0000.0001)                 6.774664001052061E+10,      /* I =571 */
(PID.TID 0000.0001)                 6.340977594437342E+10,      /* I =572 */
(PID.TID 0000.0001)                 5.917213486169992E+10,      /* I =573 */
(PID.TID 0000.0001)                 5.527465317123617E+10,      /* I =574 */
(PID.TID 0000.0001)                 5.204287050900327E+10,      /* I =575 */
(PID.TID 0000.0001)                 4.986520121408537E+10,      /* I =576 */
(PID.TID 0000.0001)                 7.248875782324815E+10,      /* I =577 */
(PID.TID 0000.0001)                 7.279231679399365E+10,      /* I =578 */
(PID.TID 0000.0001)                 7.368167655649474E+10,      /* I =579 */
(PID.TID 0000.0001)                 7.509678831847641E+10,      /* I =580 */
(PID.TID 0000.0001)                 7.694890654165292E+10,      /* I =581 */
(PID.TID 0000.0001)                 7.913292536892735E+10,      /* I =582 */
(PID.TID 0000.0001)                 8.153840828108624E+10,      /* I =583 */
(PID.TID 0000.0001)                 8.405745909920529E+10,      /* I =584 */
(PID.TID 0000.0001)                 8.658933893113814E+10,      /* I =585 */
(PID.TID 0000.0001)                 8.904267216287007E+10,      /* I =586 */
(PID.TID 0000.0001)                 9.133625108440211E+10,      /* I =587 */
(PID.TID 0000.0001)                 9.339922083542212E+10,      /* I =588 */
(PID.TID 0000.0001)                 9.517111234598198E+10,      /* I =589 */
(PID.TID 0000.0001)                 9.660193530171867E+10,      /* I =590 */
(PID.TID 0000.0001)                 9.765237883413150E+10,      /* I =591 */
(PID.TID 0000.0001)                 9.829408090567543E+10,      /* I =592 */
(PID.TID 0000.0001)                 9.850992024629108E+10,      /* I =593 */
(PID.TID 0000.0001)                 9.829408090566643E+10,      /* I =594 */
(PID.TID 0000.0001)                 9.765237883417654E+10,      /* I =595 */
(PID.TID 0000.0001)                 9.660193530170966E+10,      /* I =596 */
(PID.TID 0000.0001)                 9.517111234598198E+10,      /* I =597 */
(PID.TID 0000.0001)                 9.339922083542212E+10,      /* I =598 */
(PID.TID 0000.0001)                 9.133625108442915E+10,      /* I =599 */
(PID.TID 0000.0001)                 8.904267216284305E+10,      /* I =600 */
(PID.TID 0000.0001)                 8.658933893111111E+10,      /* I =601 */
(PID.TID 0000.0001)                 8.405745909919627E+10,      /* I =602 */
(PID.TID 0000.0001)                 8.153840828111327E+10,      /* I =603 */
(PID.TID 0000.0001)                 7.913292536890033E+10,      /* I =604 */
(PID.TID 0000.0001)                 7.694890654164391E+10,      /* I =605 */
(PID.TID 0000.0001)                 7.509678831851245E+10,      /* I =606 */
(PID.TID 0000.0001)                 7.368167655646770E+10,      /* I =607 */
(PID.TID 0000.0001)                 7.279231679395761E+10,      /* I =608 */
(PID.TID 0000.0001)                 8.669186205742538E+10,      /* I =609 */
(PID.TID 0000.0001)                 8.685766201151035E+10,      /* I =610 */
(PID.TID 0000.0001)                 8.734770119183551E+10,      /* I =611 */
(PID.TID 0000.0001)                 8.814040875497484E+10,      /* I =612 */
(PID.TID 0000.0001)                 8.920144688867136E+10,      /* I =613 */
(PID.TID 0000.0001)                 9.048584877142091E+10,      /* I =614 */
(PID.TID 0000.0001)                 9.194055005879561E+10,      /* I =615 */
(PID.TID 0000.0001)                 9.350703696481783E+10,      /* I =616 */
(PID.TID 0000.0001)                 9.512391461452121E+10,      /* I =617 */
(PID.TID 0000.0001)                 9.672929195068874E+10,      /* I =618 */
(PID.TID 0000.0001)                 9.826295097121390E+10,      /* I =619 */
(PID.TID 0000.0001)                 9.966830565497348E+10,      /* I =620 */
(PID.TID 0000.0001)                 1.008941633474940E+11,      /* I =621 */
(PID.TID 0000.0001)                 1.018962902305423E+11,      /* I =622 */
(PID.TID 0000.0001)                 1.026387649994800E+11,      /* I =623 */
(PID.TID 0000.0001)                 1.030950900845666E+11,      /* I =624 */
(PID.TID 0000.0001)                 1.032490462723345E+11,      /* I =625 */
(PID.TID 0000.0001)                 1.030950900845756E+11,      /* I =626 */
(PID.TID 0000.0001)                 1.026387649994890E+11,      /* I =627 */
(PID.TID 0000.0001)                 1.018962902305873E+11,      /* I =628 */
(PID.TID 0000.0001)                 1.008941633475211E+11,      /* I =629 */
(PID.TID 0000.0001)                 9.966830565496446E+10,      /* I =630 */
(PID.TID 0000.0001)                 9.826295097118686E+10,      /* I =631 */
(PID.TID 0000.0001)                 9.672929195066171E+10,      /* I =632 */
(PID.TID 0000.0001)                 9.512391461453923E+10,      /* I =633 */
(PID.TID 0000.0001)                 9.350703696482683E+10,      /* I =634 */
(PID.TID 0000.0001)                 9.194055005878661E+10,      /* I =635 */
(PID.TID 0000.0001)                 9.048584877142992E+10,      /* I =636 */
(PID.TID 0000.0001)                 8.920144688865334E+10,      /* I =637 */
(PID.TID 0000.0001)                 8.814040875495682E+10,      /* I =638 */
(PID.TID 0000.0001)                 8.734770119188055E+10,      /* I =639 */
(PID.TID 0000.0001)                 8.685766201151035E+10,      /* I =640 */
(PID.TID 0000.0001)                 9.071447638299399E+10,      /* I =641 */
(PID.TID 0000.0001)                 9.085012105610597E+10,      /* I =642 */
(PID.TID 0000.0001)                 9.125179254955583E+10,      /* I =643 */
(PID.TID 0000.0001)                 9.190392048045309E+10,      /* I =644 */
(PID.TID 0000.0001)                 9.278126467409492E+10,      /* I =645 */
(PID.TID 0000.0001)                 9.384993610263170E+10,      /* I =646 */
(PID.TID 0000.0001)                 9.506874487174457E+10,      /* I =647 */
(PID.TID 0000.0001)                 9.639080978465117E+10,      /* I =648 */
(PID.TID 0000.0001)                 9.776536132335065E+10,      /* I =649 */
(PID.TID 0000.0001)                 9.913967116446748E+10,      /* I =650 */
(PID.TID 0000.0001)                 1.004610434085146E+11,      /* I =651 */
(PID.TID 0000.0001)                 1.016788034168886E+11,      /* I =652 */
(PID.TID 0000.0001)                 1.027462190489479E+11,      /* I =653 */
(PID.TID 0000.0001)                 1.036222871661027E+11,      /* I =654 */
(PID.TID 0000.0001)                 1.042733173971964E+11,      /* I =655 */
(PID.TID 0000.0001)                 1.046742473574501E+11,      /* I =656 */
(PID.TID 0000.0001)                 1.048096527455915E+11,      /* I =657 */
(PID.TID 0000.0001)                 1.046742473574591E+11,      /* I =658 */
(PID.TID 0000.0001)                 1.042733173971784E+11,      /* I =659 */
(PID.TID 0000.0001)                 1.036222871660937E+11,      /* I =660 */
(PID.TID 0000.0001)                 1.027462190489479E+11,      /* I =661 */
(PID.TID 0000.0001)                 1.016788034168886E+11,      /* I =662 */
(PID.TID 0000.0001)                 1.004610434084966E+11,      /* I =663 */
(PID.TID 0000.0001)                 9.913967116446748E+10,      /* I =664 */
(PID.TID 0000.0001)                 9.776536132332361E+10,      /* I =665 */
(PID.TID 0000.0001)                 9.639080978466919E+10,      /* I =666 */
(PID.TID 0000.0001)                 9.506874487171754E+10,      /* I =667 */
(PID.TID 0000.0001)                 9.384993610260466E+10,      /* I =668 */
(PID.TID 0000.0001)                 9.278126467408592E+10,      /* I =669 */
(PID.TID 0000.0001)                 9.190392048045309E+10,      /* I =670 */
(PID.TID 0000.0001)                 9.125179254954683E+10,      /* I =671 */
(PID.TID 0000.0001)                 9.085012105606993E+10,      /* I =672 */
(PID.TID 0000.0001)                 8.404959656062837E+10,      /* I =673 */
(PID.TID 0000.0001)                 8.423694814524229E+10,      /* I =674 */
(PID.TID 0000.0001)                 8.478995543419156E+10,      /* I =675 */
(PID.TID 0000.0001)                 8.568227064692918E+10,      /* I =676 */
(PID.TID 0000.0001)                 8.687244923850627E+10,      /* I =677 */
(PID.TID 0000.0001)                 8.830710010637584E+10,      /* I =678 */
(PID.TID 0000.0001)                 8.992442369919336E+10,      /* I =679 */
(PID.TID 0000.0001)                 9.165766698784360E+10,      /* I =680 */
(PID.TID 0000.0001)                 9.343821140062714E+10,      /* I =681 */
(PID.TID 0000.0001)                 9.519819736176830E+10,      /* I =682 */
(PID.TID 0000.0001)                 9.687271610510727E+10,      /* I =683 */
(PID.TID 0000.0001)                 9.840165325167386E+10,      /* I =684 */
(PID.TID 0000.0001)                 9.973126714696570E+10,      /* I =685 */
(PID.TID 0000.0001)                 1.008155548120687E+11,      /* I =686 */
(PID.TID 0000.0001)                 1.016174217634913E+11,      /* I =687 */
(PID.TID 0000.0001)                 1.021096424414193E+11,      /* I =688 */
(PID.TID 0000.0001)                 1.022756055022041E+11,      /* I =689 */
(PID.TID 0000.0001)                 1.021096424414012E+11,      /* I =690 */
(PID.TID 0000.0001)                 1.016174217635003E+11,      /* I =691 */
(PID.TID 0000.0001)                 1.008155548120777E+11,      /* I =692 */
(PID.TID 0000.0001)                 9.973126714698372E+10,      /* I =693 */
(PID.TID 0000.0001)                 9.840165325168286E+10,      /* I =694 */
(PID.TID 0000.0001)                 9.687271610514331E+10,      /* I =695 */
(PID.TID 0000.0001)                 9.519819736178632E+10,      /* I =696 */
(PID.TID 0000.0001)                 9.343821140059109E+10,      /* I =697 */
(PID.TID 0000.0001)                 9.165766698784360E+10,      /* I =698 */
(PID.TID 0000.0001)                 8.992442369920236E+10,      /* I =699 */
(PID.TID 0000.0001)                 8.830710010634882E+10,      /* I =700 */
(PID.TID 0000.0001)                 8.687244923847925E+10,      /* I =701 */
(PID.TID 0000.0001)                 8.568227064693820E+10,      /* I =702 */
(PID.TID 0000.0001)                 8.478995543419156E+10,      /* I =703 */
(PID.TID 0000.0001)                 8.423694814525130E+10,      /* I =704 */
(PID.TID 0000.0001)                 6.748840226738273E+10,      /* I =705 */
(PID.TID 0000.0001)                 6.785762228965186E+10,      /* I =706 */
(PID.TID 0000.0001)                 6.893429052929407E+10,      /* I =707 */
(PID.TID 0000.0001)                 7.063282762453648E+10,      /* I =708 */
(PID.TID 0000.0001)                 7.283130776162505E+10,      /* I =709 */
(PID.TID 0000.0001)                 7.539208669246643E+10,      /* I =710 */
(PID.TID 0000.0001)                 7.817800519391208E+10,      /* I =711 */
(PID.TID 0000.0001)                 8.106189722872533E+10,      /* I =712 */
(PID.TID 0000.0001)                 8.393053257714168E+10,      /* I =713 */
(PID.TID 0000.0001)                 8.668522207917874E+10,      /* I =714 */
(PID.TID 0000.0001)                 8.924097252669591E+10,      /* I =715 */
(PID.TID 0000.0001)                 9.152533954246133E+10,      /* I =716 */
(PID.TID 0000.0001)                 9.347751054428943E+10,      /* I =717 */
(PID.TID 0000.0001)                 9.504776953558653E+10,      /* I =718 */
(PID.TID 0000.0001)                 9.619730346663052E+10,      /* I =719 */
(PID.TID 0000.0001)                 9.689823457954172E+10,      /* I =720 */
(PID.TID 0000.0001)                 9.713377776174072E+10,      /* I =721 */
(PID.TID 0000.0001)                 9.689823457951468E+10,      /* I =722 */
(PID.TID 0000.0001)                 9.619730346663052E+10,      /* I =723 */
(PID.TID 0000.0001)                 9.504776953557753E+10,      /* I =724 */
(PID.TID 0000.0001)                 9.347751054425339E+10,      /* I =725 */
(PID.TID 0000.0001)                 9.152533954245232E+10,      /* I =726 */
(PID.TID 0000.0001)                 8.924097252668690E+10,      /* I =727 */
(PID.TID 0000.0001)                 8.668522207915172E+10,      /* I =728 */
(PID.TID 0000.0001)                 8.393053257718672E+10,      /* I =729 */
(PID.TID 0000.0001)                 8.106189722871632E+10,      /* I =730 */
(PID.TID 0000.0001)                 7.817800519388504E+10,      /* I =731 */
(PID.TID 0000.0001)                 7.539208669248445E+10,      /* I =732 */
(PID.TID 0000.0001)                 7.283130776157999E+10,      /* I =733 */
(PID.TID 0000.0001)                 7.063282762452747E+10,      /* I =734 */
(PID.TID 0000.0001)                 6.893429052933911E+10,      /* I =735 */
(PID.TID 0000.0001)                 6.785762228965186E+10,      /* I =736 */
(PID.TID 0000.0001)                 4.168532893152940E+10,      /* I =737 */
(PID.TID 0000.0001)                 4.277139654150195E+10,      /* I =738 */
(PID.TID 0000.0001)                 4.572298663459904E+10,      /* I =739 */
(PID.TID 0000.0001)                 4.988866449916054E+10,      /* I =740 */
(PID.TID 0000.0001)                 5.467231580449774E+10,      /* I =741 */
(PID.TID 0000.0001)                 5.966921269229353E+10,      /* I =742 */
(PID.TID 0000.0001)                 6.462993877221152E+10,      /* I =743 */
(PID.TID 0000.0001)                 6.939903912006009E+10,      /* I =744 */
(PID.TID 0000.0001)                 7.387277930931242E+10,      /* I =745 */
(PID.TID 0000.0001)                 7.797556405803633E+10,      /* I =746 */
(PID.TID 0000.0001)                 8.164783409187733E+10,      /* I =747 */
(PID.TID 0000.0001)                 8.484024620507198E+10,      /* I =748 */
(PID.TID 0000.0001)                 8.751117576832700E+10,      /* I =749 */
(PID.TID 0000.0001)                 8.962593924489761E+10,      /* I =750 */
(PID.TID 0000.0001)                 9.115685951897852E+10,      /* I =751 */
(PID.TID 0000.0001)                 9.208367574520467E+10,      /* I =752 */
(PID.TID 0000.0001)                 9.239403136821951E+10,      /* I =753 */
(PID.TID 0000.0001)                 9.208367574522269E+10,      /* I =754 */
(PID.TID 0000.0001)                 9.115685951896950E+10,      /* I =755 */
(PID.TID 0000.0001)                 8.962593924488861E+10,      /* I =756 */
(PID.TID 0000.0001)                 8.751117576829997E+10,      /* I =757 */
(PID.TID 0000.0001)                 8.484024620506297E+10,      /* I =758 */
(PID.TID 0000.0001)                 8.164783409188635E+10,      /* I =759 */
(PID.TID 0000.0001)                 7.797556405799127E+10,      /* I =760 */
(PID.TID 0000.0001)                 7.387277930931242E+10,      /* I =761 */
(PID.TID 0000.0001)                 6.939903912008713E+10,      /* I =762 */
(PID.TID 0000.0001)                 6.462993877222053E+10,      /* I =763 */
(PID.TID 0000.0001)                 5.966921269227551E+10,      /* I =764 */
(PID.TID 0000.0001)                 5.467231580448873E+10,      /* I =765 */
(PID.TID 0000.0001)                 4.988866449919658E+10,      /* I =766 */
(PID.TID 0000.0001)                 4.572298663462607E+10,      /* I =767 */
(PID.TID 0000.0001)                 4.277139654155600E+10,      /* I =768 */
(PID.TID 0000.0001)                 1.216690346714270E+10,      /* I =769 */
(PID.TID 0000.0001)                 1.974052138506315E+10,      /* I =770 */
(PID.TID 0000.0001)                 2.943712825252015E+10,      /* I =771 */
(PID.TID 0000.0001)                 3.801790263324359E+10,      /* I =772 */
(PID.TID 0000.0001)                 4.571243814189866E+10,      /* I =773 */
(PID.TID 0000.0001)                 5.269930713599979E+10,      /* I =774 */
(PID.TID 0000.0001)                 5.907428494299063E+10,      /* I =775 */
(PID.TID 0000.0001)                 6.488320895111514E+10,      /* I =776 */
(PID.TID 0000.0001)                 7.014205907741882E+10,      /* I =777 */
(PID.TID 0000.0001)                 7.484854821847499E+10,      /* I =778 */
(PID.TID 0000.0001)                 7.898934631431560E+10,      /* I =779 */
(PID.TID 0000.0001)                 8.254500894894537E+10,      /* I =780 */
(PID.TID 0000.0001)                 8.549360686473492E+10,      /* I =781 */
(PID.TID 0000.0001)                 8.781353403175085E+10,      /* I =782 */
(PID.TID 0000.0001)                 8.948571540392021E+10,      /* I =783 */
(PID.TID 0000.0001)                 9.049530583086168E+10,      /* I =784 */
(PID.TID 0000.0001)                 9.083293515008307E+10,      /* I =785 */
(PID.TID 0000.0001)                 9.049530583087070E+10,      /* I =786 */
(PID.TID 0000.0001)                 8.948571540391121E+10,      /* I =787 */
(PID.TID 0000.0001)                 8.781353403174185E+10,      /* I =788 */
(PID.TID 0000.0001)                 8.549360686467184E+10,      /* I =789 */
(PID.TID 0000.0001)                 8.254500894890933E+10,      /* I =790 */
(PID.TID 0000.0001)                 7.898934631434262E+10,      /* I =791 */
(PID.TID 0000.0001)                 7.484854821844795E+10,      /* I =792 */
(PID.TID 0000.0001)                 7.014205907742783E+10,      /* I =793 */
(PID.TID 0000.0001)                 6.488320895111514E+10,      /* I =794 */
(PID.TID 0000.0001)                 5.907428494299063E+10,      /* I =795 */
(PID.TID 0000.0001)                 5.269930713599078E+10,      /* I =796 */
(PID.TID 0000.0001)                 4.571243814190767E+10,      /* I =797 */
(PID.TID 0000.0001)                 3.801790263325260E+10,      /* I =798 */
(PID.TID 0000.0001)                 2.943712825251114E+10,      /* I =799 */
(PID.TID 0000.0001)                 1.974052138509018E+10,      /* I =800 */
(PID.TID 0000.0001)                 4.909074590409593E+10,      /* I =801 */
(PID.TID 0000.0001)                 4.986520121412141E+10,      /* I =802 */
(PID.TID 0000.0001)                 5.204287050903931E+10,      /* I =803 */
(PID.TID 0000.0001)                 5.527465317122717E+10,      /* I =804 */
(PID.TID 0000.0001)                 5.917213486167289E+10,      /* I =805 */
(PID.TID 0000.0001)                 6.340977594439144E+10,      /* I =806 */
(PID.TID 0000.0001)                 6.774664001052962E+10,      /* I =807 */
(PID.TID 0000.0001)                 7.201071051828903E+10,      /* I =808 */
(PID.TID 0000.0001)                 7.607731167898732E+10,      /* I =809 */
(PID.TID 0000.0001)                 7.985244550664505E+10,      /* I =810 */
(PID.TID 0000.0001)                 8.326213236016757E+10,      /* I =811 */
(PID.TID 0000.0001)                 8.624626394679582E+10,      /* I =812 */
(PID.TID 0000.0001)                 8.875538179479057E+10,      /* I =813 */
(PID.TID 0000.0001)                 9.074921899965959E+10,      /* I =814 */
(PID.TID 0000.0001)                 9.219623581499365E+10,      /* I =815 */
(PID.TID 0000.0001)                 9.307365326586650E+10,      /* I =816 */
(PID.TID 0000.0001)                 9.336769520564153E+10,      /* I =817 */
(PID.TID 0000.0001)                 9.307365326586650E+10,      /* I =818 */
(PID.TID 0000.0001)                 9.219623581497563E+10,      /* I =819 */
(PID.TID 0000.0001)                 9.074921899966859E+10,      /* I =820 */
(PID.TID 0000.0001)                 8.875538179481760E+10,      /* I =821 */
(PID.TID 0000.0001)                 8.624626394676880E+10,      /* I =822 */
(PID.TID 0000.0001)                 8.326213236023064E+10,      /* I =823 */
(PID.TID 0000.0001)                 7.985244550659999E+10,      /* I =824 */
(PID.TID 0000.0001)                 7.607731167900534E+10,      /* I =825 */
(PID.TID 0000.0001)                 7.201071051828903E+10,      /* I =826 */
(PID.TID 0000.0001)                 6.774664001052061E+10,      /* I =827 */
(PID.TID 0000.0001)                 6.340977594437342E+10,      /* I =828 */
(PID.TID 0000.0001)                 5.917213486169992E+10,      /* I =829 */
(PID.TID 0000.0001)                 5.527465317123617E+10,      /* I =830 */
(PID.TID 0000.0001)                 5.204287050900327E+10,      /* I =831 */
(PID.TID 0000.0001)                 4.986520121408537E+10,      /* I =832 */
(PID.TID 0000.0001)                 7.248875782324815E+10,      /* I =833 */
(PID.TID 0000.0001)                 7.279231679399365E+10,      /* I =834 */
(PID.TID 0000.0001)                 7.368167655649474E+10,      /* I =835 */
(PID.TID 0000.0001)                 7.509678831847641E+10,      /* I =836 */
(PID.TID 0000.0001)                 7.694890654165292E+10,      /* I =837 */
(PID.TID 0000.0001)                 7.913292536892735E+10,      /* I =838 */
(PID.TID 0000.0001)                 8.153840828108624E+10,      /* I =839 */
(PID.TID 0000.0001)                 8.405745909920529E+10,      /* I =840 */
(PID.TID 0000.0001)                 8.658933893113814E+10,      /* I =841 */
(PID.TID 0000.0001)                 8.904267216287007E+10,      /* I =842 */
(PID.TID 0000.0001)                 9.133625108440211E+10,      /* I =843 */
(PID.TID 0000.0001)                 9.339922083542212E+10,      /* I =844 */
(PID.TID 0000.0001)                 9.517111234598198E+10,      /* I =845 */
(PID.TID 0000.0001)                 9.660193530171867E+10,      /* I =846 */
(PID.TID 0000.0001)                 9.765237883413150E+10,      /* I =847 */
(PID.TID 0000.0001)                 9.829408090567543E+10,      /* I =848 */
(PID.TID 0000.0001)                 9.850992024629108E+10,      /* I =849 */
(PID.TID 0000.0001)                 9.829408090566643E+10,      /* I =850 */
(PID.TID 0000.0001)                 9.765237883417654E+10,      /* I =851 */
(PID.TID 0000.0001)                 9.660193530170966E+10,      /* I =852 */
(PID.TID 0000.0001)                 9.517111234598198E+10,      /* I =853 */
(PID.TID 0000.0001)                 9.339922083542212E+10,      /* I =854 */
(PID.TID 0000.0001)                 9.133625108442915E+10,      /* I =855 */
(PID.TID 0000.0001)                 8.904267216284305E+10,      /* I =856 */
(PID.TID 0000.0001)                 8.658933893111111E+10,      /* I =857 */
(PID.TID 0000.0001)                 8.405745909919627E+10,      /* I =858 */
(PID.TID 0000.0001)                 8.153840828111327E+10,      /* I =859 */
(PID.TID 0000.0001)                 7.913292536890033E+10,      /* I =860 */
(PID.TID 0000.0001)                 7.694890654164391E+10,      /* I =861 */
(PID.TID 0000.0001)                 7.509678831851245E+10,      /* I =862 */
(PID.TID 0000.0001)                 7.368167655646770E+10,      /* I =863 */
(PID.TID 0000.0001)                 7.279231679395761E+10,      /* I =864 */
(PID.TID 0000.0001)                 8.669186205742538E+10,      /* I =865 */
(PID.TID 0000.0001)                 8.685766201151035E+10,      /* I =866 */
(PID.TID 0000.0001)                 8.734770119183551E+10,      /* I =867 */
(PID.TID 0000.0001)                 8.814040875497484E+10,      /* I =868 */
(PID.TID 0000.0001)                 8.920144688867136E+10,      /* I =869 */
(PID.TID 0000.0001)                 9.048584877142091E+10,      /* I =870 */
(PID.TID 0000.0001)                 9.194055005879561E+10,      /* I =871 */
(PID.TID 0000.0001)                 9.350703696481783E+10,      /* I =872 */
(PID.TID 0000.0001)                 9.512391461452121E+10,      /* I =873 */
(PID.TID 0000.0001)                 9.672929195068874E+10,      /* I =874 */
(PID.TID 0000.0001)                 9.826295097121390E+10,      /* I =875 */
(PID.TID 0000.0001)                 9.966830565497348E+10,      /* I =876 */
(PID.TID 0000.0001)                 1.008941633474940E+11,      /* I =877 */
(PID.TID 0000.0001)                 1.018962902305423E+11,      /* I =878 */
(PID.TID 0000.0001)                 1.026387649994800E+11,      /* I =879 */
(PID.TID 0000.0001)                 1.030950900845666E+11,      /* I =880 */
(PID.TID 0000.0001)                 1.032490462723345E+11,      /* I =881 */
(PID.TID 0000.0001)                 1.030950900845756E+11,      /* I =882 */
(PID.TID 0000.0001)                 1.026387649994890E+11,      /* I =883 */
(PID.TID 0000.0001)                 1.018962902305873E+11,      /* I =884 */
(PID.TID 0000.0001)                 1.008941633475211E+11,      /* I =885 */
(PID.TID 0000.0001)                 9.966830565496446E+10,      /* I =886 */
(PID.TID 0000.0001)                 9.826295097118686E+10,      /* I =887 */
(PID.TID 0000.0001)                 9.672929195066171E+10,      /* I =888 */
(PID.TID 0000.0001)                 9.512391461453923E+10,      /* I =889 */
(PID.TID 0000.0001)                 9.350703696482683E+10,      /* I =890 */
(PID.TID 0000.0001)                 9.194055005878661E+10,      /* I =891 */
(PID.TID 0000.0001)                 9.048584877142992E+10,      /* I =892 */
(PID.TID 0000.0001)                 8.920144688865334E+10,      /* I =893 */
(PID.TID 0000.0001)                 8.814040875495682E+10,      /* I =894 */
(PID.TID 0000.0001)                 8.734770119188055E+10,      /* I =895 */
(PID.TID 0000.0001)                 8.685766201151035E+10,      /* I =896 */
(PID.TID 0000.0001)                 9.071447638299399E+10,      /* I =897 */
(PID.TID 0000.0001)                 9.085012105610597E+10,      /* I =898 */
(PID.TID 0000.0001)                 9.125179254955583E+10,      /* I =899 */
(PID.TID 0000.0001)                 9.190392048045309E+10,      /* I =900 */
(PID.TID 0000.0001)                 9.278126467409492E+10,      /* I =901 */
(PID.TID 0000.0001)                 9.384993610263170E+10,      /* I =902 */
(PID.TID 0000.0001)                 9.506874487174457E+10,      /* I =903 */
(PID.TID 0000.0001)                 9.639080978465117E+10,      /* I =904 */
(PID.TID 0000.0001)                 9.776536132335065E+10,      /* I =905 */
(PID.TID 0000.0001)                 9.913967116446748E+10,      /* I =906 */
(PID.TID 0000.0001)                 1.004610434085146E+11,      /* I =907 */
(PID.TID 0000.0001)                 1.016788034168886E+11,      /* I =908 */
(PID.TID 0000.0001)                 1.027462190489479E+11,      /* I =909 */
(PID.TID 0000.0001)                 1.036222871661027E+11,      /* I =910 */
(PID.TID 0000.0001)                 1.042733173971964E+11,      /* I =911 */
(PID.TID 0000.0001)                 1.046742473574501E+11,      /* I =912 */
(PID.TID 0000.0001)                 1.048096527455915E+11,      /* I =913 */
(PID.TID 0000.0001)                 1.046742473574591E+11,      /* I =914 */
(PID.TID 0000.0001)                 1.042733173971784E+11,      /* I =915 */
(PID.TID 0000.0001)                 1.036222871660937E+11,      /* I =916 */
(PID.TID 0000.0001)                 1.027462190489479E+11,      /* I =917 */
(PID.TID 0000.0001)                 1.016788034168886E+11,      /* I =918 */
(PID.TID 0000.0001)                 1.004610434084966E+11,      /* I =919 */
(PID.TID 0000.0001)                 9.913967116446748E+10,      /* I =920 */
(PID.TID 0000.0001)                 9.776536132332361E+10,      /* I =921 */
(PID.TID 0000.0001)                 9.639080978466919E+10,      /* I =922 */
(PID.TID 0000.0001)                 9.506874487171754E+10,      /* I =923 */
(PID.TID 0000.0001)                 9.384993610260466E+10,      /* I =924 */
(PID.TID 0000.0001)                 9.278126467408592E+10,      /* I =925 */
(PID.TID 0000.0001)                 9.190392048045309E+10,      /* I =926 */
(PID.TID 0000.0001)                 9.125179254954683E+10,      /* I =927 */
(PID.TID 0000.0001)                 9.085012105606993E+10,      /* I =928 */
(PID.TID 0000.0001)                 8.404959656062837E+10,      /* I =929 */
(PID.TID 0000.0001)                 8.423694814524229E+10,      /* I =930 */
(PID.TID 0000.0001)                 8.478995543419156E+10,      /* I =931 */
(PID.TID 0000.0001)                 8.568227064692918E+10,      /* I =932 */
(PID.TID 0000.0001)                 8.687244923850627E+10,      /* I =933 */
(PID.TID 0000.0001)                 8.830710010637584E+10,      /* I =934 */
(PID.TID 0000.0001)                 8.992442369919336E+10,      /* I =935 */
(PID.TID 0000.0001)                 9.165766698784360E+10,      /* I =936 */
(PID.TID 0000.0001)                 9.343821140062714E+10,      /* I =937 */
(PID.TID 0000.0001)                 9.519819736176830E+10,      /* I =938 */
(PID.TID 0000.0001)                 9.687271610510727E+10,      /* I =939 */
(PID.TID 0000.0001)                 9.840165325167386E+10,      /* I =940 */
(PID.TID 0000.0001)                 9.973126714696570E+10,      /* I =941 */
(PID.TID 0000.0001)                 1.008155548120687E+11,      /* I =942 */
(PID.TID 0000.0001)                 1.016174217634913E+11,      /* I =943 */
(PID.TID 0000.0001)                 1.021096424414193E+11,      /* I =944 */
(PID.TID 0000.0001)                 1.022756055022041E+11,      /* I =945 */
(PID.TID 0000.0001)                 1.021096424414012E+11,      /* I =946 */
(PID.TID 0000.0001)                 1.016174217635003E+11,      /* I =947 */
(PID.TID 0000.0001)                 1.008155548120777E+11,      /* I =948 */
(PID.TID 0000.0001)                 9.973126714698372E+10,      /* I =949 */
(PID.TID 0000.0001)                 9.840165325168286E+10,      /* I =950 */
(PID.TID 0000.0001)                 9.687271610514331E+10,      /* I =951 */
(PID.TID 0000.0001)                 9.519819736178632E+10,      /* I =952 */
(PID.TID 0000.0001)                 9.343821140059109E+10,      /* I =953 */
(PID.TID 0000.0001)                 9.165766698784360E+10,      /* I =954 */
(PID.TID 0000.0001)                 8.992442369920236E+10,      /* I =955 */
(PID.TID 0000.0001)                 8.830710010634882E+10,      /* I =956 */
(PID.TID 0000.0001)                 8.687244923847925E+10,      /* I =957 */
(PID.TID 0000.0001)                 8.568227064693820E+10,      /* I =958 */
(PID.TID 0000.0001)                 8.478995543419156E+10,      /* I =959 */
(PID.TID 0000.0001)                 8.423694814525130E+10,      /* I =960 */
(PID.TID 0000.0001)                 6.748840226738273E+10,      /* I =961 */
(PID.TID 0000.0001)                 6.785762228965186E+10,      /* I =962 */
(PID.TID 0000.0001)                 6.893429052929407E+10,      /* I =963 */
(PID.TID 0000.0001)                 7.063282762453648E+10,      /* I =964 */
(PID.TID 0000.0001)                 7.283130776162505E+10,      /* I =965 */
(PID.TID 0000.0001)                 7.539208669246643E+10,      /* I =966 */
(PID.TID 0000.0001)                 7.817800519391208E+10,      /* I =967 */
(PID.TID 0000.0001)                 8.106189722872533E+10,      /* I =968 */
(PID.TID 0000.0001)                 8.393053257714168E+10,      /* I =969 */
(PID.TID 0000.0001)                 8.668522207917874E+10,      /* I =970 */
(PID.TID 0000.0001)                 8.924097252669591E+10,      /* I =971 */
(PID.TID 0000.0001)                 9.152533954246133E+10,      /* I =972 */
(PID.TID 0000.0001)                 9.347751054428943E+10,      /* I =973 */
(PID.TID 0000.0001)                 9.504776953558653E+10,      /* I =974 */
(PID.TID 0000.0001)                 9.619730346663052E+10,      /* I =975 */
(PID.TID 0000.0001)                 9.689823457954172E+10,      /* I =976 */
(PID.TID 0000.0001)                 9.713377776174072E+10,      /* I =977 */
(PID.TID 0000.0001)                 9.689823457951468E+10,      /* I =978 */
(PID.TID 0000.0001)                 9.619730346663052E+10,      /* I =979 */
(PID.TID 0000.0001)                 9.504776953557753E+10,      /* I =980 */
(PID.TID 0000.0001)                 9.347751054425339E+10,      /* I =981 */
(PID.TID 0000.0001)                 9.152533954245232E+10,      /* I =982 */
(PID.TID 0000.0001)                 8.924097252668690E+10,      /* I =983 */
(PID.TID 0000.0001)                 8.668522207915172E+10,      /* I =984 */
(PID.TID 0000.0001)                 8.393053257718672E+10,      /* I =985 */
(PID.TID 0000.0001)                 8.106189722871632E+10,      /* I =986 */
(PID.TID 0000.0001)                 7.817800519388504E+10,      /* I =987 */
(PID.TID 0000.0001)                 7.539208669248445E+10,      /* I =988 */
(PID.TID 0000.0001)                 7.283130776157999E+10,      /* I =989 */
(PID.TID 0000.0001)                 7.063282762452747E+10,      /* I =990 */
(PID.TID 0000.0001)                 6.893429052933911E+10,      /* I =991 */
(PID.TID 0000.0001)                 6.785762228965186E+10,      /* I =992 */
(PID.TID 0000.0001)                 4.168532893152940E+10,      /* I =993 */
(PID.TID 0000.0001)                 4.277139654150195E+10,      /* I =994 */
(PID.TID 0000.0001)                 4.572298663459904E+10,      /* I =995 */
(PID.TID 0000.0001)                 4.988866449916054E+10,      /* I =996 */
(PID.TID 0000.0001)                 5.467231580449774E+10,      /* I =997 */
(PID.TID 0000.0001)                 5.966921269229353E+10,      /* I =998 */
(PID.TID 0000.0001)                 6.462993877221152E+10,      /* I =999 */
(PID.TID 0000.0001)                 6.939903912006009E+10,      /* I =*** */
(PID.TID 0000.0001)                 7.387277930931242E+10,      /* I =*** */
(PID.TID 0000.0001)                 7.797556405803633E+10,      /* I =*** */
(PID.TID 0000.0001)                 8.164783409187733E+10,      /* I =*** */
(PID.TID 0000.0001)                 8.484024620507198E+10,      /* I =*** */
(PID.TID 0000.0001)                 8.751117576832700E+10,      /* I =*** */
(PID.TID 0000.0001)                 8.962593924489761E+10,      /* I =*** */
(PID.TID 0000.0001)                 9.115685951897852E+10,      /* I =*** */
(PID.TID 0000.0001)                 9.208367574520467E+10,      /* I =*** */
(PID.TID 0000.0001)                 9.239403136821951E+10,      /* I =*** */
(PID.TID 0000.0001)                 9.208367574522269E+10,      /* I =*** */
(PID.TID 0000.0001)                 9.115685951896950E+10,      /* I =*** */
(PID.TID 0000.0001)                 8.962593924488861E+10,      /* I =*** */
(PID.TID 0000.0001)                 8.751117576829997E+10,      /* I =*** */
(PID.TID 0000.0001)                 8.484024620506297E+10,      /* I =*** */
(PID.TID 0000.0001)                 8.164783409188635E+10,      /* I =*** */
(PID.TID 0000.0001)                 7.797556405799127E+10,      /* I =*** */
(PID.TID 0000.0001)                 7.387277930931242E+10,      /* I =*** */
(PID.TID 0000.0001)                 6.939903912008713E+10,      /* I =*** */
(PID.TID 0000.0001)                 6.462993877222053E+10,      /* I =*** */
(PID.TID 0000.0001)                 5.966921269227551E+10,      /* I =*** */
(PID.TID 0000.0001)                 5.467231580448873E+10,      /* I =*** */
(PID.TID 0000.0001)                 4.988866449919658E+10,      /* I =*** */
(PID.TID 0000.0001)                 4.572298663462607E+10,      /* I =*** */
(PID.TID 0000.0001)                 4.277139654155600E+10,      /* I =*** */
(PID.TID 0000.0001)                 1.216690346714270E+10,      /* I =*** */
(PID.TID 0000.0001)                 1.974052138506315E+10,      /* I =*** */
(PID.TID 0000.0001)                 2.943712825252015E+10,      /* I =*** */
(PID.TID 0000.0001)                 3.801790263324359E+10,      /* I =*** */
(PID.TID 0000.0001)                 4.571243814189866E+10,      /* I =*** */
(PID.TID 0000.0001)                 5.269930713599979E+10,      /* I =*** */
(PID.TID 0000.0001)                 5.907428494299063E+10,      /* I =*** */
(PID.TID 0000.0001)                 6.488320895111514E+10,      /* I =*** */
(PID.TID 0000.0001)                 7.014205907741882E+10,      /* I =*** */
(PID.TID 0000.0001)                 7.484854821847499E+10,      /* I =*** */
(PID.TID 0000.0001)                 7.898934631431560E+10,      /* I =*** */
(PID.TID 0000.0001)                 8.254500894894537E+10,      /* I =*** */
(PID.TID 0000.0001)                 8.549360686473492E+10,      /* I =*** */
(PID.TID 0000.0001)                 8.781353403175085E+10,      /* I =*** */
(PID.TID 0000.0001)                 8.948571540392021E+10,      /* I =*** */
(PID.TID 0000.0001)                 9.049530583086168E+10,      /* I =*** */
(PID.TID 0000.0001)                 9.083293515008307E+10,      /* I =*** */
(PID.TID 0000.0001)                 9.049530583087070E+10,      /* I =*** */
(PID.TID 0000.0001)                 8.948571540391121E+10,      /* I =*** */
(PID.TID 0000.0001)                 8.781353403174185E+10,      /* I =*** */
(PID.TID 0000.0001)                 8.549360686467184E+10,      /* I =*** */
(PID.TID 0000.0001)                 8.254500894890933E+10,      /* I =*** */
(PID.TID 0000.0001)                 7.898934631434262E+10,      /* I =*** */
(PID.TID 0000.0001)                 7.484854821844795E+10,      /* I =*** */
(PID.TID 0000.0001)                 7.014205907742783E+10,      /* I =*** */
(PID.TID 0000.0001)                 6.488320895111514E+10,      /* I =*** */
(PID.TID 0000.0001)                 5.907428494299063E+10,      /* I =*** */
(PID.TID 0000.0001)                 5.269930713599078E+10,      /* I =*** */
(PID.TID 0000.0001)                 4.571243814190767E+10,      /* I =*** */
(PID.TID 0000.0001)                 3.801790263325260E+10,      /* I =*** */
(PID.TID 0000.0001)                 2.943712825251114E+10,      /* I =*** */
(PID.TID 0000.0001)                 1.974052138509018E+10,      /* I =*** */
(PID.TID 0000.0001)                 4.909074590409593E+10,      /* I =*** */
(PID.TID 0000.0001)                 4.986520121412141E+10,      /* I =*** */
(PID.TID 0000.0001)                 5.204287050903931E+10,      /* I =*** */
(PID.TID 0000.0001)                 5.527465317122717E+10,      /* I =*** */
(PID.TID 0000.0001)                 5.917213486167289E+10,      /* I =*** */
(PID.TID 0000.0001)                 6.340977594439144E+10,      /* I =*** */
(PID.TID 0000.0001)                 6.774664001052962E+10,      /* I =*** */
(PID.TID 0000.0001)                 7.201071051828903E+10,      /* I =*** */
(PID.TID 0000.0001)                 7.607731167898732E+10,      /* I =*** */
(PID.TID 0000.0001)                 7.985244550664505E+10,      /* I =*** */
(PID.TID 0000.0001)                 8.326213236016757E+10,      /* I =*** */
(PID.TID 0000.0001)                 8.624626394679582E+10,      /* I =*** */
(PID.TID 0000.0001)                 8.875538179479057E+10,      /* I =*** */
(PID.TID 0000.0001)                 9.074921899965959E+10,      /* I =*** */
(PID.TID 0000.0001)                 9.219623581499365E+10,      /* I =*** */
(PID.TID 0000.0001)                 9.307365326586650E+10,      /* I =*** */
(PID.TID 0000.0001)                 9.336769520564153E+10,      /* I =*** */
(PID.TID 0000.0001)                 9.307365326586650E+10,      /* I =*** */
(PID.TID 0000.0001)                 9.219623581497563E+10,      /* I =*** */
(PID.TID 0000.0001)                 9.074921899966859E+10,      /* I =*** */
(PID.TID 0000.0001)                 8.875538179481760E+10,      /* I =*** */
(PID.TID 0000.0001)                 8.624626394676880E+10,      /* I =*** */
(PID.TID 0000.0001)                 8.326213236023064E+10,      /* I =*** */
(PID.TID 0000.0001)                 7.985244550659999E+10,      /* I =*** */
(PID.TID 0000.0001)                 7.607731167900534E+10,      /* I =*** */
(PID.TID 0000.0001)                 7.201071051828903E+10,      /* I =*** */
(PID.TID 0000.0001)                 6.774664001052061E+10,      /* I =*** */
(PID.TID 0000.0001)                 6.340977594437342E+10,      /* I =*** */
(PID.TID 0000.0001)                 5.917213486169992E+10,      /* I =*** */
(PID.TID 0000.0001)                 5.527465317123617E+10,      /* I =*** */
(PID.TID 0000.0001)                 5.204287050900327E+10,      /* I =*** */
(PID.TID 0000.0001)                 4.986520121408537E+10,      /* I =*** */
(PID.TID 0000.0001)                 7.248875782324815E+10,      /* I =*** */
(PID.TID 0000.0001)                 7.279231679399365E+10,      /* I =*** */
(PID.TID 0000.0001)                 7.368167655649474E+10,      /* I =*** */
(PID.TID 0000.0001)                 7.509678831847641E+10,      /* I =*** */
(PID.TID 0000.0001)                 7.694890654165292E+10,      /* I =*** */
(PID.TID 0000.0001)                 7.913292536892735E+10,      /* I =*** */
(PID.TID 0000.0001)                 8.153840828108624E+10,      /* I =*** */
(PID.TID 0000.0001)                 8.405745909920529E+10,      /* I =*** */
(PID.TID 0000.0001)                 8.658933893113814E+10,      /* I =*** */
(PID.TID 0000.0001)                 8.904267216287007E+10,      /* I =*** */
(PID.TID 0000.0001)                 9.133625108440211E+10,      /* I =*** */
(PID.TID 0000.0001)                 9.339922083542212E+10,      /* I =*** */
(PID.TID 0000.0001)                 9.517111234598198E+10,      /* I =*** */
(PID.TID 0000.0001)                 9.660193530171867E+10,      /* I =*** */
(PID.TID 0000.0001)                 9.765237883413150E+10,      /* I =*** */
(PID.TID 0000.0001)                 9.829408090567543E+10,      /* I =*** */
(PID.TID 0000.0001)                 9.850992024629108E+10,      /* I =*** */
(PID.TID 0000.0001)                 9.829408090566643E+10,      /* I =*** */
(PID.TID 0000.0001)                 9.765237883417654E+10,      /* I =*** */
(PID.TID 0000.0001)                 9.660193530170966E+10,      /* I =*** */
(PID.TID 0000.0001)                 9.517111234598198E+10,      /* I =*** */
(PID.TID 0000.0001)                 9.339922083542212E+10,      /* I =*** */
(PID.TID 0000.0001)                 9.133625108442915E+10,      /* I =*** */
(PID.TID 0000.0001)                 8.904267216284305E+10,      /* I =*** */
(PID.TID 0000.0001)                 8.658933893111111E+10,      /* I =*** */
(PID.TID 0000.0001)                 8.405745909919627E+10,      /* I =*** */
(PID.TID 0000.0001)                 8.153840828111327E+10,      /* I =*** */
(PID.TID 0000.0001)                 7.913292536890033E+10,      /* I =*** */
(PID.TID 0000.0001)                 7.694890654164391E+10,      /* I =*** */
(PID.TID 0000.0001)                 7.509678831851245E+10,      /* I =*** */
(PID.TID 0000.0001)                 7.368167655646770E+10,      /* I =*** */
(PID.TID 0000.0001)                 7.279231679395761E+10,      /* I =*** */
(PID.TID 0000.0001)                 8.669186205742538E+10,      /* I =*** */
(PID.TID 0000.0001)                 8.685766201151035E+10,      /* I =*** */
(PID.TID 0000.0001)                 8.734770119183551E+10,      /* I =*** */
(PID.TID 0000.0001)                 8.814040875497484E+10,      /* I =*** */
(PID.TID 0000.0001)                 8.920144688867136E+10,      /* I =*** */
(PID.TID 0000.0001)                 9.048584877142091E+10,      /* I =*** */
(PID.TID 0000.0001)                 9.194055005879561E+10,      /* I =*** */
(PID.TID 0000.0001)                 9.350703696481783E+10,      /* I =*** */
(PID.TID 0000.0001)                 9.512391461452121E+10,      /* I =*** */
(PID.TID 0000.0001)                 9.672929195068874E+10,      /* I =*** */
(PID.TID 0000.0001)                 9.826295097121390E+10,      /* I =*** */
(PID.TID 0000.0001)                 9.966830565497348E+10,      /* I =*** */
(PID.TID 0000.0001)                 1.008941633474940E+11,      /* I =*** */
(PID.TID 0000.0001)                 1.018962902305423E+11,      /* I =*** */
(PID.TID 0000.0001)                 1.026387649994800E+11,      /* I =*** */
(PID.TID 0000.0001)                 1.030950900845666E+11,      /* I =*** */
(PID.TID 0000.0001)                 1.032490462723345E+11,      /* I =*** */
(PID.TID 0000.0001)                 1.030950900845756E+11,      /* I =*** */
(PID.TID 0000.0001)                 1.026387649994890E+11,      /* I =*** */
(PID.TID 0000.0001)                 1.018962902305873E+11,      /* I =*** */
(PID.TID 0000.0001)                 1.008941633475211E+11,      /* I =*** */
(PID.TID 0000.0001)                 9.966830565496446E+10,      /* I =*** */
(PID.TID 0000.0001)                 9.826295097118686E+10,      /* I =*** */
(PID.TID 0000.0001)                 9.672929195066171E+10,      /* I =*** */
(PID.TID 0000.0001)                 9.512391461453923E+10,      /* I =*** */
(PID.TID 0000.0001)                 9.350703696482683E+10,      /* I =*** */
(PID.TID 0000.0001)                 9.194055005878661E+10,      /* I =*** */
(PID.TID 0000.0001)                 9.048584877142992E+10,      /* I =*** */
(PID.TID 0000.0001)                 8.920144688865334E+10,      /* I =*** */
(PID.TID 0000.0001)                 8.814040875495682E+10,      /* I =*** */
(PID.TID 0000.0001)                 8.734770119188055E+10,      /* I =*** */
(PID.TID 0000.0001)                 8.685766201151035E+10,      /* I =*** */
(PID.TID 0000.0001)                 9.071447638299399E+10,      /* I =*** */
(PID.TID 0000.0001)                 9.085012105610597E+10,      /* I =*** */
(PID.TID 0000.0001)                 9.125179254955583E+10,      /* I =*** */
(PID.TID 0000.0001)                 9.190392048045309E+10,      /* I =*** */
(PID.TID 0000.0001)                 9.278126467409492E+10,      /* I =*** */
(PID.TID 0000.0001)                 9.384993610263170E+10,      /* I =*** */
(PID.TID 0000.0001)                 9.506874487174457E+10,      /* I =*** */
(PID.TID 0000.0001)                 9.639080978465117E+10,      /* I =*** */
(PID.TID 0000.0001)                 9.776536132335065E+10,      /* I =*** */
(PID.TID 0000.0001)                 9.913967116446748E+10,      /* I =*** */
(PID.TID 0000.0001)                 1.004610434085146E+11,      /* I =*** */
(PID.TID 0000.0001)                 1.016788034168886E+11,      /* I =*** */
(PID.TID 0000.0001)                 1.027462190489479E+11,      /* I =*** */
(PID.TID 0000.0001)                 1.036222871661027E+11,      /* I =*** */
(PID.TID 0000.0001)                 1.042733173971964E+11,      /* I =*** */
(PID.TID 0000.0001)                 1.046742473574501E+11,      /* I =*** */
(PID.TID 0000.0001)                 1.048096527455915E+11,      /* I =*** */
(PID.TID 0000.0001)                 1.046742473574591E+11,      /* I =*** */
(PID.TID 0000.0001)                 1.042733173971784E+11,      /* I =*** */
(PID.TID 0000.0001)                 1.036222871660937E+11,      /* I =*** */
(PID.TID 0000.0001)                 1.027462190489479E+11,      /* I =*** */
(PID.TID 0000.0001)                 1.016788034168886E+11,      /* I =*** */
(PID.TID 0000.0001)                 1.004610434084966E+11,      /* I =*** */
(PID.TID 0000.0001)                 9.913967116446748E+10,      /* I =*** */
(PID.TID 0000.0001)                 9.776536132332361E+10,      /* I =*** */
(PID.TID 0000.0001)                 9.639080978466919E+10,      /* I =*** */
(PID.TID 0000.0001)                 9.506874487171754E+10,      /* I =*** */
(PID.TID 0000.0001)                 9.384993610260466E+10,      /* I =*** */
(PID.TID 0000.0001)                 9.278126467408592E+10,      /* I =*** */
(PID.TID 0000.0001)                 9.190392048045309E+10,      /* I =*** */
(PID.TID 0000.0001)                 9.125179254954683E+10,      /* I =*** */
(PID.TID 0000.0001)                 9.085012105606993E+10,      /* I =*** */
(PID.TID 0000.0001)                 8.404959656062837E+10,      /* I =*** */
(PID.TID 0000.0001)                 8.423694814524229E+10,      /* I =*** */
(PID.TID 0000.0001)                 8.478995543419156E+10,      /* I =*** */
(PID.TID 0000.0001)                 8.568227064692918E+10,      /* I =*** */
(PID.TID 0000.0001)                 8.687244923850627E+10,      /* I =*** */
(PID.TID 0000.0001)                 8.830710010637584E+10,      /* I =*** */
(PID.TID 0000.0001)                 8.992442369919336E+10,      /* I =*** */
(PID.TID 0000.0001)                 9.165766698784360E+10,      /* I =*** */
(PID.TID 0000.0001)                 9.343821140062714E+10,      /* I =*** */
(PID.TID 0000.0001)                 9.519819736176830E+10,      /* I =*** */
(PID.TID 0000.0001)                 9.687271610510727E+10,      /* I =*** */
(PID.TID 0000.0001)                 9.840165325167386E+10,      /* I =*** */
(PID.TID 0000.0001)                 9.973126714696570E+10,      /* I =*** */
(PID.TID 0000.0001)                 1.008155548120687E+11,      /* I =*** */
(PID.TID 0000.0001)                 1.016174217634913E+11,      /* I =*** */
(PID.TID 0000.0001)                 1.021096424414193E+11,      /* I =*** */
(PID.TID 0000.0001)                 1.022756055022041E+11,      /* I =*** */
(PID.TID 0000.0001)                 1.021096424414012E+11,      /* I =*** */
(PID.TID 0000.0001)                 1.016174217635003E+11,      /* I =*** */
(PID.TID 0000.0001)                 1.008155548120777E+11,      /* I =*** */
(PID.TID 0000.0001)                 9.973126714698372E+10,      /* I =*** */
(PID.TID 0000.0001)                 9.840165325168286E+10,      /* I =*** */
(PID.TID 0000.0001)                 9.687271610514331E+10,      /* I =*** */
(PID.TID 0000.0001)                 9.519819736178632E+10,      /* I =*** */
(PID.TID 0000.0001)                 9.343821140059109E+10,      /* I =*** */
(PID.TID 0000.0001)                 9.165766698784360E+10,      /* I =*** */
(PID.TID 0000.0001)                 8.992442369920236E+10,      /* I =*** */
(PID.TID 0000.0001)                 8.830710010634882E+10,      /* I =*** */
(PID.TID 0000.0001)                 8.687244923847925E+10,      /* I =*** */
(PID.TID 0000.0001)                 8.568227064693820E+10,      /* I =*** */
(PID.TID 0000.0001)                 8.478995543419156E+10,      /* I =*** */
(PID.TID 0000.0001)                 8.423694814525130E+10,      /* I =*** */
(PID.TID 0000.0001)                 6.748840226738273E+10,      /* I =*** */
(PID.TID 0000.0001)                 6.785762228965186E+10,      /* I =*** */
(PID.TID 0000.0001)                 6.893429052929407E+10,      /* I =*** */
(PID.TID 0000.0001)                 7.063282762453648E+10,      /* I =*** */
(PID.TID 0000.0001)                 7.283130776162505E+10,      /* I =*** */
(PID.TID 0000.0001)                 7.539208669246643E+10,      /* I =*** */
(PID.TID 0000.0001)                 7.817800519391208E+10,      /* I =*** */
(PID.TID 0000.0001)                 8.106189722872533E+10,      /* I =*** */
(PID.TID 0000.0001)                 8.393053257714168E+10,      /* I =*** */
(PID.TID 0000.0001)                 8.668522207917874E+10,      /* I =*** */
(PID.TID 0000.0001)                 8.924097252669591E+10,      /* I =*** */
(PID.TID 0000.0001)                 9.152533954246133E+10,      /* I =*** */
(PID.TID 0000.0001)                 9.347751054428943E+10,      /* I =*** */
(PID.TID 0000.0001)                 9.504776953558653E+10,      /* I =*** */
(PID.TID 0000.0001)                 9.619730346663052E+10,      /* I =*** */
(PID.TID 0000.0001)                 9.689823457954172E+10,      /* I =*** */
(PID.TID 0000.0001)                 9.713377776174072E+10,      /* I =*** */
(PID.TID 0000.0001)                 9.689823457951468E+10,      /* I =*** */
(PID.TID 0000.0001)                 9.619730346663052E+10,      /* I =*** */
(PID.TID 0000.0001)                 9.504776953557753E+10,      /* I =*** */
(PID.TID 0000.0001)                 9.347751054425339E+10,      /* I =*** */
(PID.TID 0000.0001)                 9.152533954245232E+10,      /* I =*** */
(PID.TID 0000.0001)                 8.924097252668690E+10,      /* I =*** */
(PID.TID 0000.0001)                 8.668522207915172E+10,      /* I =*** */
(PID.TID 0000.0001)                 8.393053257718672E+10,      /* I =*** */
(PID.TID 0000.0001)                 8.106189722871632E+10,      /* I =*** */
(PID.TID 0000.0001)                 7.817800519388504E+10,      /* I =*** */
(PID.TID 0000.0001)                 7.539208669248445E+10,      /* I =*** */
(PID.TID 0000.0001)                 7.283130776157999E+10,      /* I =*** */
(PID.TID 0000.0001)                 7.063282762452747E+10,      /* I =*** */
(PID.TID 0000.0001)                 6.893429052933911E+10,      /* I =*** */
(PID.TID 0000.0001)                 6.785762228965186E+10,      /* I =*** */
(PID.TID 0000.0001)                 4.168532893152940E+10,      /* I =*** */
(PID.TID 0000.0001)                 4.277139654150195E+10,      /* I =*** */
(PID.TID 0000.0001)                 4.572298663459904E+10,      /* I =*** */
(PID.TID 0000.0001)                 4.988866449916054E+10,      /* I =*** */
(PID.TID 0000.0001)                 5.467231580449774E+10,      /* I =*** */
(PID.TID 0000.0001)                 5.966921269229353E+10,      /* I =*** */
(PID.TID 0000.0001)                 6.462993877221152E+10,      /* I =*** */
(PID.TID 0000.0001)                 6.939903912006009E+10,      /* I =*** */
(PID.TID 0000.0001)                 7.387277930931242E+10,      /* I =*** */
(PID.TID 0000.0001)                 7.797556405803633E+10,      /* I =*** */
(PID.TID 0000.0001)                 8.164783409187733E+10,      /* I =*** */
(PID.TID 0000.0001)                 8.484024620507198E+10,      /* I =*** */
(PID.TID 0000.0001)                 8.751117576832700E+10,      /* I =*** */
(PID.TID 0000.0001)                 8.962593924489761E+10,      /* I =*** */
(PID.TID 0000.0001)                 9.115685951897852E+10,      /* I =*** */
(PID.TID 0000.0001)                 9.208367574520467E+10,      /* I =*** */
(PID.TID 0000.0001)                 9.239403136821951E+10,      /* I =*** */
(PID.TID 0000.0001)                 9.208367574522269E+10,      /* I =*** */
(PID.TID 0000.0001)                 9.115685951896950E+10,      /* I =*** */
(PID.TID 0000.0001)                 8.962593924488861E+10,      /* I =*** */
(PID.TID 0000.0001)                 8.751117576829997E+10,      /* I =*** */
(PID.TID 0000.0001)                 8.484024620506297E+10,      /* I =*** */
(PID.TID 0000.0001)                 8.164783409188635E+10,      /* I =*** */
(PID.TID 0000.0001)                 7.797556405799127E+10,      /* I =*** */
(PID.TID 0000.0001)                 7.387277930931242E+10,      /* I =*** */
(PID.TID 0000.0001)                 6.939903912008713E+10,      /* I =*** */
(PID.TID 0000.0001)                 6.462993877222053E+10,      /* I =*** */
(PID.TID 0000.0001)                 5.966921269227551E+10,      /* I =*** */
(PID.TID 0000.0001)                 5.467231580448873E+10,      /* I =*** */
(PID.TID 0000.0001)                 4.988866449919658E+10,      /* I =*** */
(PID.TID 0000.0001)                 4.572298663462607E+10,      /* I =*** */
(PID.TID 0000.0001)                 4.277139654155600E+10,      /* I =*** */
(PID.TID 0000.0001)                 1.216690346714270E+10,      /* I =*** */
(PID.TID 0000.0001)                 1.974052138506315E+10,      /* I =*** */
(PID.TID 0000.0001)                 2.943712825252015E+10,      /* I =*** */
(PID.TID 0000.0001)                 3.801790263324359E+10,      /* I =*** */
(PID.TID 0000.0001)                 4.571243814189866E+10,      /* I =*** */
(PID.TID 0000.0001)                 5.269930713599979E+10,      /* I =*** */
(PID.TID 0000.0001)                 5.907428494299063E+10,      /* I =*** */
(PID.TID 0000.0001)                 6.488320895111514E+10,      /* I =*** */
(PID.TID 0000.0001)                 7.014205907741882E+10,      /* I =*** */
(PID.TID 0000.0001)                 7.484854821847499E+10,      /* I =*** */
(PID.TID 0000.0001)                 7.898934631431560E+10,      /* I =*** */
(PID.TID 0000.0001)                 8.254500894894537E+10,      /* I =*** */
(PID.TID 0000.0001)                 8.549360686473492E+10,      /* I =*** */
(PID.TID 0000.0001)                 8.781353403175085E+10,      /* I =*** */
(PID.TID 0000.0001)                 8.948571540392021E+10,      /* I =*** */
(PID.TID 0000.0001)                 9.049530583086168E+10,      /* I =*** */
(PID.TID 0000.0001)                 9.083293515008307E+10,      /* I =*** */
(PID.TID 0000.0001)                 9.049530583087070E+10,      /* I =*** */
(PID.TID 0000.0001)                 8.948571540391121E+10,      /* I =*** */
(PID.TID 0000.0001)                 8.781353403174185E+10,      /* I =*** */
(PID.TID 0000.0001)                 8.549360686467184E+10,      /* I =*** */
(PID.TID 0000.0001)                 8.254500894890933E+10,      /* I =*** */
(PID.TID 0000.0001)                 7.898934631434262E+10,      /* I =*** */
(PID.TID 0000.0001)                 7.484854821844795E+10,      /* I =*** */
(PID.TID 0000.0001)                 7.014205907742783E+10,      /* I =*** */
(PID.TID 0000.0001)                 6.488320895111514E+10,      /* I =*** */
(PID.TID 0000.0001)                 5.907428494299063E+10,      /* I =*** */
(PID.TID 0000.0001)                 5.269930713599078E+10,      /* I =*** */
(PID.TID 0000.0001)                 4.571243814190767E+10,      /* I =*** */
(PID.TID 0000.0001)                 3.801790263325260E+10,      /* I =*** */
(PID.TID 0000.0001)                 2.943712825251114E+10,      /* I =*** */
(PID.TID 0000.0001)                 1.974052138509018E+10,      /* I =*** */
(PID.TID 0000.0001)                 4.909074590409593E+10,      /* I =*** */
(PID.TID 0000.0001)                 4.986520121412141E+10,      /* I =*** */
(PID.TID 0000.0001)                 5.204287050903931E+10,      /* I =*** */
(PID.TID 0000.0001)                 5.527465317122717E+10,      /* I =*** */
(PID.TID 0000.0001)                 5.917213486167289E+10,      /* I =*** */
(PID.TID 0000.0001)                 6.340977594439144E+10,      /* I =*** */
(PID.TID 0000.0001)                 6.774664001052962E+10,      /* I =*** */
(PID.TID 0000.0001)                 7.201071051828903E+10,      /* I =*** */
(PID.TID 0000.0001)                 7.607731167898732E+10,      /* I =*** */
(PID.TID 0000.0001)                 7.985244550664505E+10,      /* I =*** */
(PID.TID 0000.0001)                 8.326213236016757E+10,      /* I =*** */
(PID.TID 0000.0001)                 8.624626394679582E+10,      /* I =*** */
(PID.TID 0000.0001)                 8.875538179479057E+10,      /* I =*** */
(PID.TID 0000.0001)                 9.074921899965959E+10,      /* I =*** */
(PID.TID 0000.0001)                 9.219623581499365E+10,      /* I =*** */
(PID.TID 0000.0001)                 9.307365326586650E+10,      /* I =*** */
(PID.TID 0000.0001)                 9.336769520564153E+10,      /* I =*** */
(PID.TID 0000.0001)                 9.307365326586650E+10,      /* I =*** */
(PID.TID 0000.0001)                 9.219623581497563E+10,      /* I =*** */
(PID.TID 0000.0001)                 9.074921899966859E+10,      /* I =*** */
(PID.TID 0000.0001)                 8.875538179481760E+10,      /* I =*** */
(PID.TID 0000.0001)                 8.624626394676880E+10,      /* I =*** */
(PID.TID 0000.0001)                 8.326213236023064E+10,      /* I =*** */
(PID.TID 0000.0001)                 7.985244550659999E+10,      /* I =*** */
(PID.TID 0000.0001)                 7.607731167900534E+10,      /* I =*** */
(PID.TID 0000.0001)                 7.201071051828903E+10,      /* I =*** */
(PID.TID 0000.0001)                 6.774664001052061E+10,      /* I =*** */
(PID.TID 0000.0001)                 6.340977594437342E+10,      /* I =*** */
(PID.TID 0000.0001)                 5.917213486169992E+10,      /* I =*** */
(PID.TID 0000.0001)                 5.527465317123617E+10,      /* I =*** */
(PID.TID 0000.0001)                 5.204287050900327E+10,      /* I =*** */
(PID.TID 0000.0001)                 4.986520121408537E+10,      /* I =*** */
(PID.TID 0000.0001)                 7.248875782324815E+10,      /* I =*** */
(PID.TID 0000.0001)                 7.279231679399365E+10,      /* I =*** */
(PID.TID 0000.0001)                 7.368167655649474E+10,      /* I =*** */
(PID.TID 0000.0001)                 7.509678831847641E+10,      /* I =*** */
(PID.TID 0000.0001)                 7.694890654165292E+10,      /* I =*** */
(PID.TID 0000.0001)                 7.913292536892735E+10,      /* I =*** */
(PID.TID 0000.0001)                 8.153840828108624E+10,      /* I =*** */
(PID.TID 0000.0001)                 8.405745909920529E+10,      /* I =*** */
(PID.TID 0000.0001)                 8.658933893113814E+10,      /* I =*** */
(PID.TID 0000.0001)                 8.904267216287007E+10,      /* I =*** */
(PID.TID 0000.0001)                 9.133625108440211E+10,      /* I =*** */
(PID.TID 0000.0001)                 9.339922083542212E+10,      /* I =*** */
(PID.TID 0000.0001)                 9.517111234598198E+10,      /* I =*** */
(PID.TID 0000.0001)                 9.660193530171867E+10,      /* I =*** */
(PID.TID 0000.0001)                 9.765237883413150E+10,      /* I =*** */
(PID.TID 0000.0001)                 9.829408090567543E+10,      /* I =*** */
(PID.TID 0000.0001)                 9.850992024629108E+10,      /* I =*** */
(PID.TID 0000.0001)                 9.829408090566643E+10,      /* I =*** */
(PID.TID 0000.0001)                 9.765237883417654E+10,      /* I =*** */
(PID.TID 0000.0001)                 9.660193530170966E+10,      /* I =*** */
(PID.TID 0000.0001)                 9.517111234598198E+10,      /* I =*** */
(PID.TID 0000.0001)                 9.339922083542212E+10,      /* I =*** */
(PID.TID 0000.0001)                 9.133625108442915E+10,      /* I =*** */
(PID.TID 0000.0001)                 8.904267216284305E+10,      /* I =*** */
(PID.TID 0000.0001)                 8.658933893111111E+10,      /* I =*** */
(PID.TID 0000.0001)                 8.405745909919627E+10,      /* I =*** */
(PID.TID 0000.0001)                 8.153840828111327E+10,      /* I =*** */
(PID.TID 0000.0001)                 7.913292536890033E+10,      /* I =*** */
(PID.TID 0000.0001)                 7.694890654164391E+10,      /* I =*** */
(PID.TID 0000.0001)                 7.509678831851245E+10,      /* I =*** */
(PID.TID 0000.0001)                 7.368167655646770E+10,      /* I =*** */
(PID.TID 0000.0001)                 7.279231679395761E+10,      /* I =*** */
(PID.TID 0000.0001)                 8.669186205742538E+10,      /* I =*** */
(PID.TID 0000.0001)                 8.685766201151035E+10,      /* I =*** */
(PID.TID 0000.0001)                 8.734770119183551E+10,      /* I =*** */
(PID.TID 0000.0001)                 8.814040875497484E+10,      /* I =*** */
(PID.TID 0000.0001)                 8.920144688867136E+10,      /* I =*** */
(PID.TID 0000.0001)                 9.048584877142091E+10,      /* I =*** */
(PID.TID 0000.0001)                 9.194055005879561E+10,      /* I =*** */
(PID.TID 0000.0001)                 9.350703696481783E+10,      /* I =*** */
(PID.TID 0000.0001)                 9.512391461452121E+10,      /* I =*** */
(PID.TID 0000.0001)                 9.672929195068874E+10,      /* I =*** */
(PID.TID 0000.0001)                 9.826295097121390E+10,      /* I =*** */
(PID.TID 0000.0001)                 9.966830565497348E+10,      /* I =*** */
(PID.TID 0000.0001)                 1.008941633474940E+11,      /* I =*** */
(PID.TID 0000.0001)                 1.018962902305423E+11,      /* I =*** */
(PID.TID 0000.0001)                 1.026387649994800E+11,      /* I =*** */
(PID.TID 0000.0001)                 1.030950900845666E+11,      /* I =*** */
(PID.TID 0000.0001)                 1.032490462723345E+11,      /* I =*** */
(PID.TID 0000.0001)                 1.030950900845756E+11,      /* I =*** */
(PID.TID 0000.0001)                 1.026387649994890E+11,      /* I =*** */
(PID.TID 0000.0001)                 1.018962902305873E+11,      /* I =*** */
(PID.TID 0000.0001)                 1.008941633475211E+11,      /* I =*** */
(PID.TID 0000.0001)                 9.966830565496446E+10,      /* I =*** */
(PID.TID 0000.0001)                 9.826295097118686E+10,      /* I =*** */
(PID.TID 0000.0001)                 9.672929195066171E+10,      /* I =*** */
(PID.TID 0000.0001)                 9.512391461453923E+10,      /* I =*** */
(PID.TID 0000.0001)                 9.350703696482683E+10,      /* I =*** */
(PID.TID 0000.0001)                 9.194055005878661E+10,      /* I =*** */
(PID.TID 0000.0001)                 9.048584877142992E+10,      /* I =*** */
(PID.TID 0000.0001)                 8.920144688865334E+10,      /* I =*** */
(PID.TID 0000.0001)                 8.814040875495682E+10,      /* I =*** */
(PID.TID 0000.0001)                 8.734770119188055E+10,      /* I =*** */
(PID.TID 0000.0001)                 8.685766201151035E+10,      /* I =*** */
(PID.TID 0000.0001)                 9.071447638299399E+10,      /* I =*** */
(PID.TID 0000.0001)                 9.085012105610597E+10,      /* I =*** */
(PID.TID 0000.0001)                 9.125179254955583E+10,      /* I =*** */
(PID.TID 0000.0001)                 9.190392048045309E+10,      /* I =*** */
(PID.TID 0000.0001)                 9.278126467409492E+10,      /* I =*** */
(PID.TID 0000.0001)                 9.384993610263170E+10,      /* I =*** */
(PID.TID 0000.0001)                 9.506874487174457E+10,      /* I =*** */
(PID.TID 0000.0001)                 9.639080978465117E+10,      /* I =*** */
(PID.TID 0000.0001)                 9.776536132335065E+10,      /* I =*** */
(PID.TID 0000.0001)                 9.913967116446748E+10,      /* I =*** */
(PID.TID 0000.0001)                 1.004610434085146E+11,      /* I =*** */
(PID.TID 0000.0001)                 1.016788034168886E+11,      /* I =*** */
(PID.TID 0000.0001)                 1.027462190489479E+11,      /* I =*** */
(PID.TID 0000.0001)                 1.036222871661027E+11,      /* I =*** */
(PID.TID 0000.0001)                 1.042733173971964E+11,      /* I =*** */
(PID.TID 0000.0001)                 1.046742473574501E+11,      /* I =*** */
(PID.TID 0000.0001)                 1.048096527455915E+11,      /* I =*** */
(PID.TID 0000.0001)                 1.046742473574591E+11,      /* I =*** */
(PID.TID 0000.0001)                 1.042733173971784E+11,      /* I =*** */
(PID.TID 0000.0001)                 1.036222871660937E+11,      /* I =*** */
(PID.TID 0000.0001)                 1.027462190489479E+11,      /* I =*** */
(PID.TID 0000.0001)                 1.016788034168886E+11,      /* I =*** */
(PID.TID 0000.0001)                 1.004610434084966E+11,      /* I =*** */
(PID.TID 0000.0001)                 9.913967116446748E+10,      /* I =*** */
(PID.TID 0000.0001)                 9.776536132332361E+10,      /* I =*** */
(PID.TID 0000.0001)                 9.639080978466919E+10,      /* I =*** */
(PID.TID 0000.0001)                 9.506874487171754E+10,      /* I =*** */
(PID.TID 0000.0001)                 9.384993610260466E+10,      /* I =*** */
(PID.TID 0000.0001)                 9.278126467408592E+10,      /* I =*** */
(PID.TID 0000.0001)                 9.190392048045309E+10,      /* I =*** */
(PID.TID 0000.0001)                 9.125179254954683E+10,      /* I =*** */
(PID.TID 0000.0001)                 9.085012105606993E+10,      /* I =*** */
(PID.TID 0000.0001)                 8.404959656062837E+10,      /* I =*** */
(PID.TID 0000.0001)                 8.423694814524229E+10,      /* I =*** */
(PID.TID 0000.0001)                 8.478995543419156E+10,      /* I =*** */
(PID.TID 0000.0001)                 8.568227064692918E+10,      /* I =*** */
(PID.TID 0000.0001)                 8.687244923850627E+10,      /* I =*** */
(PID.TID 0000.0001)                 8.830710010637584E+10,      /* I =*** */
(PID.TID 0000.0001)                 8.992442369919336E+10,      /* I =*** */
(PID.TID 0000.0001)                 9.165766698784360E+10,      /* I =*** */
(PID.TID 0000.0001)                 9.343821140062714E+10,      /* I =*** */
(PID.TID 0000.0001)                 9.519819736176830E+10,      /* I =*** */
(PID.TID 0000.0001)                 9.687271610510727E+10,      /* I =*** */
(PID.TID 0000.0001)                 9.840165325167386E+10,      /* I =*** */
(PID.TID 0000.0001)                 9.973126714696570E+10,      /* I =*** */
(PID.TID 0000.0001)                 1.008155548120687E+11,      /* I =*** */
(PID.TID 0000.0001)                 1.016174217634913E+11,      /* I =*** */
(PID.TID 0000.0001)                 1.021096424414193E+11,      /* I =*** */
(PID.TID 0000.0001)                 1.022756055022041E+11,      /* I =*** */
(PID.TID 0000.0001)                 1.021096424414012E+11,      /* I =*** */
(PID.TID 0000.0001)                 1.016174217635003E+11,      /* I =*** */
(PID.TID 0000.0001)                 1.008155548120777E+11,      /* I =*** */
(PID.TID 0000.0001)                 9.973126714698372E+10,      /* I =*** */
(PID.TID 0000.0001)                 9.840165325168286E+10,      /* I =*** */
(PID.TID 0000.0001)                 9.687271610514331E+10,      /* I =*** */
(PID.TID 0000.0001)                 9.519819736178632E+10,      /* I =*** */
(PID.TID 0000.0001)                 9.343821140059109E+10,      /* I =*** */
(PID.TID 0000.0001)                 9.165766698784360E+10,      /* I =*** */
(PID.TID 0000.0001)                 8.992442369920236E+10,      /* I =*** */
(PID.TID 0000.0001)                 8.830710010634882E+10,      /* I =*** */
(PID.TID 0000.0001)                 8.687244923847925E+10,      /* I =*** */
(PID.TID 0000.0001)                 8.568227064693820E+10,      /* I =*** */
(PID.TID 0000.0001)                 8.478995543419156E+10,      /* I =*** */
(PID.TID 0000.0001)                 8.423694814525130E+10,      /* I =*** */
(PID.TID 0000.0001)                 6.748840226738273E+10,      /* I =*** */
(PID.TID 0000.0001)                 6.785762228965186E+10,      /* I =*** */
(PID.TID 0000.0001)                 6.893429052929407E+10,      /* I =*** */
(PID.TID 0000.0001)                 7.063282762453648E+10,      /* I =*** */
(PID.TID 0000.0001)                 7.283130776162505E+10,      /* I =*** */
(PID.TID 0000.0001)                 7.539208669246643E+10,      /* I =*** */
(PID.TID 0000.0001)                 7.817800519391208E+10,      /* I =*** */
(PID.TID 0000.0001)                 8.106189722872533E+10,      /* I =*** */
(PID.TID 0000.0001)                 8.393053257714168E+10,      /* I =*** */
(PID.TID 0000.0001)                 8.668522207917874E+10,      /* I =*** */
(PID.TID 0000.0001)                 8.924097252669591E+10,      /* I =*** */
(PID.TID 0000.0001)                 9.152533954246133E+10,      /* I =*** */
(PID.TID 0000.0001)                 9.347751054428943E+10,      /* I =*** */
(PID.TID 0000.0001)                 9.504776953558653E+10,      /* I =*** */
(PID.TID 0000.0001)                 9.619730346663052E+10,      /* I =*** */
(PID.TID 0000.0001)                 9.689823457954172E+10,      /* I =*** */
(PID.TID 0000.0001)                 9.713377776174072E+10,      /* I =*** */
(PID.TID 0000.0001)                 9.689823457951468E+10,      /* I =*** */
(PID.TID 0000.0001)                 9.619730346663052E+10,      /* I =*** */
(PID.TID 0000.0001)                 9.504776953557753E+10,      /* I =*** */
(PID.TID 0000.0001)                 9.347751054425339E+10,      /* I =*** */
(PID.TID 0000.0001)                 9.152533954245232E+10,      /* I =*** */
(PID.TID 0000.0001)                 8.924097252668690E+10,      /* I =*** */
(PID.TID 0000.0001)                 8.668522207915172E+10,      /* I =*** */
(PID.TID 0000.0001)                 8.393053257718672E+10,      /* I =*** */
(PID.TID 0000.0001)                 8.106189722871632E+10,      /* I =*** */
(PID.TID 0000.0001)                 7.817800519388504E+10,      /* I =*** */
(PID.TID 0000.0001)                 7.539208669248445E+10,      /* I =*** */
(PID.TID 0000.0001)                 7.283130776157999E+10,      /* I =*** */
(PID.TID 0000.0001)                 7.063282762452747E+10,      /* I =*** */
(PID.TID 0000.0001)                 6.893429052933911E+10,      /* I =*** */
(PID.TID 0000.0001)                 6.785762228965186E+10,      /* I =*** */
(PID.TID 0000.0001)                 4.168532893152940E+10,      /* I =*** */
(PID.TID 0000.0001)                 4.277139654150195E+10,      /* I =*** */
(PID.TID 0000.0001)                 4.572298663459904E+10,      /* I =*** */
(PID.TID 0000.0001)                 4.988866449916054E+10,      /* I =*** */
(PID.TID 0000.0001)                 5.467231580449774E+10,      /* I =*** */
(PID.TID 0000.0001)                 5.966921269229353E+10,      /* I =*** */
(PID.TID 0000.0001)                 6.462993877221152E+10,      /* I =*** */
(PID.TID 0000.0001)                 6.939903912006009E+10,      /* I =*** */
(PID.TID 0000.0001)                 7.387277930931242E+10,      /* I =*** */
(PID.TID 0000.0001)                 7.797556405803633E+10,      /* I =*** */
(PID.TID 0000.0001)                 8.164783409187733E+10,      /* I =*** */
(PID.TID 0000.0001)                 8.484024620507198E+10,      /* I =*** */
(PID.TID 0000.0001)                 8.751117576832700E+10,      /* I =*** */
(PID.TID 0000.0001)                 8.962593924489761E+10,      /* I =*** */
(PID.TID 0000.0001)                 9.115685951897852E+10,      /* I =*** */
(PID.TID 0000.0001)                 9.208367574520467E+10,      /* I =*** */
(PID.TID 0000.0001)                 9.239403136821951E+10,      /* I =*** */
(PID.TID 0000.0001)                 9.208367574522269E+10,      /* I =*** */
(PID.TID 0000.0001)                 9.115685951896950E+10,      /* I =*** */
(PID.TID 0000.0001)                 8.962593924488861E+10,      /* I =*** */
(PID.TID 0000.0001)                 8.751117576829997E+10,      /* I =*** */
(PID.TID 0000.0001)                 8.484024620506297E+10,      /* I =*** */
(PID.TID 0000.0001)                 8.164783409188635E+10,      /* I =*** */
(PID.TID 0000.0001)                 7.797556405799127E+10,      /* I =*** */
(PID.TID 0000.0001)                 7.387277930931242E+10,      /* I =*** */
(PID.TID 0000.0001)                 6.939903912008713E+10,      /* I =*** */
(PID.TID 0000.0001)                 6.462993877222053E+10,      /* I =*** */
(PID.TID 0000.0001)                 5.966921269227551E+10,      /* I =*** */
(PID.TID 0000.0001)                 5.467231580448873E+10,      /* I =*** */
(PID.TID 0000.0001)                 4.988866449919658E+10,      /* I =*** */
(PID.TID 0000.0001)                 4.572298663462607E+10,      /* I =*** */
(PID.TID 0000.0001)                 4.277139654155600E+10       /* I =*** */
(PID.TID 0000.0001)     ;
(PID.TID 0000.0001) rAw =  /* rAw(1,:,1,:) ( m - cartesian, degrees - spherical ) */
(PID.TID 0000.0001)                 1.216690346714270E+10,      /* J =  1 */
(PID.TID 0000.0001)                 2.390126200743558E+10,      /* J =  2 */
(PID.TID 0000.0001)                 3.341968103208270E+10,      /* J =  3 */
(PID.TID 0000.0001)                 4.168532893152940E+10       /* J =  4 */
(PID.TID 0000.0001)     ;
(PID.TID 0000.0001) rAs =  /* rAs(:,1,:,1) ( m - cartesian, degrees - spherical ) */
(PID.TID 0000.0001)                 1.216690346714270E+10,      /* I =  1 */
(PID.TID 0000.0001)                 2.390126200743558E+10,      /* I =  2 */
(PID.TID 0000.0001)                 3.341968103208270E+10,      /* I =  3 */
(PID.TID 0000.0001)                 4.168532893152940E+10,      /* I =  4 */
(PID.TID 0000.0001)                 4.909074590409593E+10,      /* I =  5 */
(PID.TID 0000.0001)                 5.581203765722643E+10,      /* I =  6 */
(PID.TID 0000.0001)                 6.193257577506788E+10,      /* I =  7 */
(PID.TID 0000.0001)                 6.748840226738273E+10,      /* I =  8 */
(PID.TID 0000.0001)                 7.248875782324815E+10,      /* I =  9 */
(PID.TID 0000.0001)                 7.692702995909871E+10,      /* I = 10 */
(PID.TID 0000.0001)                 8.078743937057304E+10,      /* I = 11 */
(PID.TID 0000.0001)                 8.404959656062837E+10,      /* I = 12 */
(PID.TID 0000.0001)                 8.669186205742538E+10,      /* I = 13 */
(PID.TID 0000.0001)                 8.869393350723613E+10,      /* I = 14 */
(PID.TID 0000.0001)                 9.003884657168852E+10,      /* I = 15 */
(PID.TID 0000.0001)     2 @  9.071447638299399E+10,             /* I = 16: 17 */
(PID.TID 0000.0001)                 9.003884657168852E+10,      /* I = 18 */
(PID.TID 0000.0001)                 8.869393350723613E+10,      /* I = 19 */
(PID.TID 0000.0001)                 8.669186205742538E+10,      /* I = 20 */
(PID.TID 0000.0001)                 8.404959656062837E+10,      /* I = 21 */
(PID.TID 0000.0001)                 8.078743937057304E+10,      /* I = 22 */
(PID.TID 0000.0001)                 7.692702995909871E+10,      /* I = 23 */
(PID.TID 0000.0001)                 7.248875782324815E+10,      /* I = 24 */
(PID.TID 0000.0001)                 6.748840226738273E+10,      /* I = 25 */
(PID.TID 0000.0001)                 6.193257577506788E+10,      /* I = 26 */
(PID.TID 0000.0001)                 5.581203765722643E+10,      /* I = 27 */
(PID.TID 0000.0001)                 4.909074590409593E+10,      /* I = 28 */
(PID.TID 0000.0001)                 4.168532893152940E+10,      /* I = 29 */
(PID.TID 0000.0001)                 3.341968103208270E+10,      /* I = 30 */
(PID.TID 0000.0001)                 2.390126200743558E+10,      /* I = 31 */
(PID.TID 0000.0001)                 1.216690346714270E+10,      /* I = 32 */
(PID.TID 0000.0001)                 4.571243814189866E+10,      /* I = 33 */
(PID.TID 0000.0001)                 4.747577840755909E+10,      /* I = 34 */
(PID.TID 0000.0001)                 5.062996293677739E+10,      /* I = 35 */
(PID.TID 0000.0001)                 5.467231580448873E+10,      /* I = 36 */
(PID.TID 0000.0001)                 5.917213486167289E+10,      /* I = 37 */
(PID.TID 0000.0001)                 6.382388519537862E+10,      /* I = 38 */
(PID.TID 0000.0001)                 6.842319715282995E+10,      /* I = 39 */
(PID.TID 0000.0001)                 7.283130776157999E+10,      /* I = 40 */
(PID.TID 0000.0001)                 7.694890654165292E+10,      /* I = 41 */
(PID.TID 0000.0001)                 8.070033400481630E+10,      /* I = 42 */
(PID.TID 0000.0001)                 8.402489455582884E+10,      /* I = 43 */
(PID.TID 0000.0001)                 8.687244923847925E+10,      /* I = 44 */
(PID.TID 0000.0001)                 8.920144688867136E+10,      /* I = 45 */
(PID.TID 0000.0001)                 9.097828507498270E+10,      /* I = 46 */
(PID.TID 0000.0001)                 9.217733826645589E+10,      /* I = 47 */
(PID.TID 0000.0001)                 9.278126467408592E+10,      /* I = 48 */
(PID.TID 0000.0001)                 9.278126467409492E+10,      /* I = 49 */
(PID.TID 0000.0001)                 9.217733826644687E+10,      /* I = 50 */
(PID.TID 0000.0001)                 9.097828507499170E+10,      /* I = 51 */
(PID.TID 0000.0001)                 8.920144688865334E+10,      /* I = 52 */
(PID.TID 0000.0001)                 8.687244923850627E+10,      /* I = 53 */
(PID.TID 0000.0001)                 8.402489455586488E+10,      /* I = 54 */
(PID.TID 0000.0001)                 8.070033400484334E+10,      /* I = 55 */
(PID.TID 0000.0001)                 7.694890654164391E+10,      /* I = 56 */
(PID.TID 0000.0001)                 7.283130776162505E+10,      /* I = 57 */
(PID.TID 0000.0001)                 6.842319715282094E+10,      /* I = 58 */
(PID.TID 0000.0001)                 6.382388519540565E+10,      /* I = 59 */
(PID.TID 0000.0001)                 5.917213486169992E+10,      /* I = 60 */
(PID.TID 0000.0001)                 5.467231580449774E+10,      /* I = 61 */
(PID.TID 0000.0001)                 5.062996293675036E+10,      /* I = 62 */
(PID.TID 0000.0001)                 4.747577840754108E+10,      /* I = 63 */
(PID.TID 0000.0001)                 4.571243814190767E+10,      /* I = 64 */
(PID.TID 0000.0001)                 7.014205907741882E+10,      /* I = 65 */
(PID.TID 0000.0001)                 7.080359444504936E+10,      /* I = 66 */
(PID.TID 0000.0001)                 7.207697049620459E+10,      /* I = 67 */
(PID.TID 0000.0001)                 7.387277930931242E+10,      /* I = 68 */
(PID.TID 0000.0001)                 7.607731167898732E+10,      /* I = 69 */
(PID.TID 0000.0001)                 7.856766377620157E+10,      /* I = 70 */
(PID.TID 0000.0001)                 8.122290115046133E+10,      /* I = 71 */
(PID.TID 0000.0001)                 8.393053257718672E+10,      /* I = 72 */
(PID.TID 0000.0001)                 8.658933893113814E+10,      /* I = 73 */
(PID.TID 0000.0001)                 8.911005636635672E+10,      /* I = 74 */
(PID.TID 0000.0001)                 9.141512166179512E+10,      /* I = 75 */
(PID.TID 0000.0001)                 9.343821140059109E+10,      /* I = 76 */
(PID.TID 0000.0001)                 9.512391461452121E+10,      /* I = 77 */
(PID.TID 0000.0001)                 9.642763033423941E+10,      /* I = 78 */
(PID.TID 0000.0001)                 9.731565189660542E+10,      /* I = 79 */
(PID.TID 0000.0001)                 9.776536132332361E+10,      /* I = 80 */
(PID.TID 0000.0001)                 9.776536132335065E+10,      /* I = 81 */
(PID.TID 0000.0001)                 9.731565189661444E+10,      /* I = 82 */
(PID.TID 0000.0001)                 9.642763033424841E+10,      /* I = 83 */
(PID.TID 0000.0001)                 9.512391461453923E+10,      /* I = 84 */
(PID.TID 0000.0001)                 9.343821140062714E+10,      /* I = 85 */
(PID.TID 0000.0001)                 9.141512166177710E+10,      /* I = 86 */
(PID.TID 0000.0001)                 8.911005636639276E+10,      /* I = 87 */
(PID.TID 0000.0001)                 8.658933893111111E+10,      /* I = 88 */
(PID.TID 0000.0001)                 8.393053257714168E+10,      /* I = 89 */
(PID.TID 0000.0001)                 8.122290115048837E+10,      /* I = 90 */
(PID.TID 0000.0001)                 7.856766377623761E+10,      /* I = 91 */
(PID.TID 0000.0001)                 7.607731167900534E+10,      /* I = 92 */
(PID.TID 0000.0001)                 7.387277930931242E+10,      /* I = 93 */
(PID.TID 0000.0001)                 7.207697049617757E+10,      /* I = 94 */
(PID.TID 0000.0001)                 7.080359444504936E+10,      /* I = 95 */
(PID.TID 0000.0001)                 7.014205907742783E+10,      /* I = 96 */
(PID.TID 0000.0001)                 8.549360686473492E+10,      /* I = 97 */
(PID.TID 0000.0001)                 8.584306032891338E+10,      /* I = 98 */
(PID.TID 0000.0001)                 8.652588999621022E+10,      /* I = 99 */
(PID.TID 0000.0001)                 8.751117576829997E+10,      /* I =100 */
(PID.TID 0000.0001)                 8.875538179479057E+10,      /* I =101 */
(PID.TID 0000.0001)                 9.020518786587576E+10,      /* I =102 */
(PID.TID 0000.0001)                 9.180052507543143E+10,      /* I =103 */
(PID.TID 0000.0001)                 9.347751054425339E+10,      /* I =104 */
(PID.TID 0000.0001)                 9.517111234598198E+10,      /* I =105 */
(PID.TID 0000.0001)                 9.681749461729144E+10,      /* I =106 */
(PID.TID 0000.0001)                 9.835606459235127E+10,      /* I =107 */
(PID.TID 0000.0001)                 9.973126714698372E+10,      /* I =108 */
(PID.TID 0000.0001)                 1.008941633474940E+11,      /* I =109 */
(PID.TID 0000.0001)                 1.018038055521548E+11,      /* I =110 */
(PID.TID 0000.0001)                 1.024283970246639E+11,      /* I =111 */
(PID.TID 0000.0001)     2 @  1.027462190489479E+11,             /* I =112:113 */
(PID.TID 0000.0001)                 1.024283970246639E+11,      /* I =114 */
(PID.TID 0000.0001)                 1.018038055521548E+11,      /* I =115 */
(PID.TID 0000.0001)                 1.008941633475211E+11,      /* I =116 */
(PID.TID 0000.0001)                 9.973126714696570E+10,      /* I =117 */
(PID.TID 0000.0001)                 9.835606459229723E+10,      /* I =118 */
(PID.TID 0000.0001)                 9.681749461729144E+10,      /* I =119 */
(PID.TID 0000.0001)                 9.517111234598198E+10,      /* I =120 */
(PID.TID 0000.0001)                 9.347751054428943E+10,      /* I =121 */
(PID.TID 0000.0001)                 9.180052507539539E+10,      /* I =122 */
(PID.TID 0000.0001)                 9.020518786587576E+10,      /* I =123 */
(PID.TID 0000.0001)                 8.875538179481760E+10,      /* I =124 */
(PID.TID 0000.0001)                 8.751117576832700E+10,      /* I =125 */
(PID.TID 0000.0001)                 8.652588999617418E+10,      /* I =126 */
(PID.TID 0000.0001)                 8.584306032892239E+10,      /* I =127 */
(PID.TID 0000.0001)                 8.549360686467184E+10,      /* I =128 */
(PID.TID 0000.0001)                 9.083293515008307E+10,      /* I =129 */
(PID.TID 0000.0001)                 9.110170898494536E+10,      /* I =130 */
(PID.TID 0000.0001)                 9.162886297688426E+10,      /* I =131 */
(PID.TID 0000.0001)                 9.239403136821951E+10,      /* I =132 */
(PID.TID 0000.0001)                 9.336769520564153E+10,      /* I =133 */
(PID.TID 0000.0001)                 9.451235404855287E+10,      /* I =134 */
(PID.TID 0000.0001)                 9.578399259392229E+10,      /* I =135 */
(PID.TID 0000.0001)                 9.713377776174072E+10,      /* I =136 */
(PID.TID 0000.0001)                 9.850992024629108E+10,      /* I =137 */
(PID.TID 0000.0001)                 9.985963523714983E+10,      /* I =138 */
(PID.TID 0000.0001)                 1.011311375396738E+11,      /* I =139 */
(PID.TID 0000.0001)                 1.022756055022041E+11,      /* I =140 */
(PID.TID 0000.0001)                 1.032490462723345E+11,      /* I =141 */
(PID.TID 0000.0001)                 1.040139933533592E+11,      /* I =142 */
(PID.TID 0000.0001)                 1.045409681097387E+11,      /* I =143 */
(PID.TID 0000.0001)     2 @  1.048096527455915E+11,             /* I =144:145 */
(PID.TID 0000.0001)                 1.045409681097387E+11,      /* I =146 */
(PID.TID 0000.0001)                 1.040139933533592E+11,      /* I =147 */
(PID.TID 0000.0001)                 1.032490462723345E+11,      /* I =148 */
(PID.TID 0000.0001)                 1.022756055022041E+11,      /* I =149 */
(PID.TID 0000.0001)                 1.011311375396738E+11,      /* I =150 */
(PID.TID 0000.0001)                 9.985963523714983E+10,      /* I =151 */
(PID.TID 0000.0001)                 9.850992024629108E+10,      /* I =152 */
(PID.TID 0000.0001)                 9.713377776174072E+10,      /* I =153 */
(PID.TID 0000.0001)                 9.578399259392229E+10,      /* I =154 */
(PID.TID 0000.0001)                 9.451235404855287E+10,      /* I =155 */
(PID.TID 0000.0001)                 9.336769520564153E+10,      /* I =156 */
(PID.TID 0000.0001)                 9.239403136821951E+10,      /* I =157 */
(PID.TID 0000.0001)                 9.162886297688426E+10,      /* I =158 */
(PID.TID 0000.0001)                 9.110170898494536E+10,      /* I =159 */
(PID.TID 0000.0001)                 9.083293515008307E+10,      /* I =160 */
(PID.TID 0000.0001)                 8.549360686467184E+10,      /* I =161 */
(PID.TID 0000.0001)                 8.584306032892239E+10,      /* I =162 */
(PID.TID 0000.0001)                 8.652588999617418E+10,      /* I =163 */
(PID.TID 0000.0001)                 8.751117576832700E+10,      /* I =164 */
(PID.TID 0000.0001)                 8.875538179481760E+10,      /* I =165 */
(PID.TID 0000.0001)                 9.020518786587576E+10,      /* I =166 */
(PID.TID 0000.0001)                 9.180052507539539E+10,      /* I =167 */
(PID.TID 0000.0001)                 9.347751054428943E+10,      /* I =168 */
(PID.TID 0000.0001)                 9.517111234598198E+10,      /* I =169 */
(PID.TID 0000.0001)                 9.681749461729144E+10,      /* I =170 */
(PID.TID 0000.0001)                 9.835606459229723E+10,      /* I =171 */
(PID.TID 0000.0001)                 9.973126714696570E+10,      /* I =172 */
(PID.TID 0000.0001)                 1.008941633475211E+11,      /* I =173 */
(PID.TID 0000.0001)                 1.018038055521548E+11,      /* I =174 */
(PID.TID 0000.0001)                 1.024283970246639E+11,      /* I =175 */
(PID.TID 0000.0001)     2 @  1.027462190489479E+11,             /* I =176:177 */
(PID.TID 0000.0001)                 1.024283970246639E+11,      /* I =178 */
(PID.TID 0000.0001)                 1.018038055521548E+11,      /* I =179 */
(PID.TID 0000.0001)                 1.008941633474940E+11,      /* I =180 */
(PID.TID 0000.0001)                 9.973126714698372E+10,      /* I =181 */
(PID.TID 0000.0001)                 9.835606459235127E+10,      /* I =182 */
(PID.TID 0000.0001)                 9.681749461729144E+10,      /* I =183 */
(PID.TID 0000.0001)                 9.517111234598198E+10,      /* I =184 */
(PID.TID 0000.0001)                 9.347751054425339E+10,      /* I =185 */
(PID.TID 0000.0001)                 9.180052507543143E+10,      /* I =186 */
(PID.TID 0000.0001)                 9.020518786587576E+10,      /* I =187 */
(PID.TID 0000.0001)                 8.875538179479057E+10,      /* I =188 */
(PID.TID 0000.0001)                 8.751117576829997E+10,      /* I =189 */
(PID.TID 0000.0001)                 8.652588999621022E+10,      /* I =190 */
(PID.TID 0000.0001)                 8.584306032891338E+10,      /* I =191 */
(PID.TID 0000.0001)                 8.549360686473492E+10,      /* I =192 */
(PID.TID 0000.0001)                 7.014205907742783E+10,      /* I =193 */
(PID.TID 0000.0001)                 7.080359444504936E+10,      /* I =194 */
(PID.TID 0000.0001)                 7.207697049617757E+10,      /* I =195 */
(PID.TID 0000.0001)                 7.387277930931242E+10,      /* I =196 */
(PID.TID 0000.0001)                 7.607731167900534E+10,      /* I =197 */
(PID.TID 0000.0001)                 7.856766377623761E+10,      /* I =198 */
(PID.TID 0000.0001)                 8.122290115048837E+10,      /* I =199 */
(PID.TID 0000.0001)                 8.393053257714168E+10,      /* I =200 */
(PID.TID 0000.0001)                 8.658933893111111E+10,      /* I =201 */
(PID.TID 0000.0001)                 8.911005636639276E+10,      /* I =202 */
(PID.TID 0000.0001)                 9.141512166177710E+10,      /* I =203 */
(PID.TID 0000.0001)                 9.343821140062714E+10,      /* I =204 */
(PID.TID 0000.0001)                 9.512391461453923E+10,      /* I =205 */
(PID.TID 0000.0001)                 9.642763033424841E+10,      /* I =206 */
(PID.TID 0000.0001)                 9.731565189661444E+10,      /* I =207 */
(PID.TID 0000.0001)                 9.776536132335065E+10,      /* I =208 */
(PID.TID 0000.0001)                 9.776536132332361E+10,      /* I =209 */
(PID.TID 0000.0001)                 9.731565189660542E+10,      /* I =210 */
(PID.TID 0000.0001)                 9.642763033423941E+10,      /* I =211 */
(PID.TID 0000.0001)                 9.512391461452121E+10,      /* I =212 */
(PID.TID 0000.0001)                 9.343821140059109E+10,      /* I =213 */
(PID.TID 0000.0001)                 9.141512166179512E+10,      /* I =214 */
(PID.TID 0000.0001)                 8.911005636635672E+10,      /* I =215 */
(PID.TID 0000.0001)                 8.658933893113814E+10,      /* I =216 */
(PID.TID 0000.0001)                 8.393053257718672E+10,      /* I =217 */
(PID.TID 0000.0001)                 8.122290115046133E+10,      /* I =218 */
(PID.TID 0000.0001)                 7.856766377620157E+10,      /* I =219 */
(PID.TID 0000.0001)                 7.607731167898732E+10,      /* I =220 */
(PID.TID 0000.0001)                 7.387277930931242E+10,      /* I =221 */
(PID.TID 0000.0001)                 7.207697049620459E+10,      /* I =222 */
(PID.TID 0000.0001)                 7.080359444504936E+10,      /* I =223 */
(PID.TID 0000.0001)                 7.014205907741882E+10,      /* I =224 */
(PID.TID 0000.0001)                 4.571243814190767E+10,      /* I =225 */
(PID.TID 0000.0001)                 4.747577840754108E+10,      /* I =226 */
(PID.TID 0000.0001)                 5.062996293675036E+10,      /* I =227 */
(PID.TID 0000.0001)                 5.467231580449774E+10,      /* I =228 */
(PID.TID 0000.0001)                 5.917213486169992E+10,      /* I =229 */
(PID.TID 0000.0001)                 6.382388519540565E+10,      /* I =230 */
(PID.TID 0000.0001)                 6.842319715282094E+10,      /* I =231 */
(PID.TID 0000.0001)                 7.283130776162505E+10,      /* I =232 */
(PID.TID 0000.0001)                 7.694890654164391E+10,      /* I =233 */
(PID.TID 0000.0001)                 8.070033400484334E+10,      /* I =234 */
(PID.TID 0000.0001)                 8.402489455586488E+10,      /* I =235 */
(PID.TID 0000.0001)                 8.687244923850627E+10,      /* I =236 */
(PID.TID 0000.0001)                 8.920144688865334E+10,      /* I =237 */
(PID.TID 0000.0001)                 9.097828507499170E+10,      /* I =238 */
(PID.TID 0000.0001)                 9.217733826644687E+10,      /* I =239 */
(PID.TID 0000.0001)                 9.278126467409492E+10,      /* I =240 */
(PID.TID 0000.0001)                 9.278126467408592E+10,      /* I =241 */
(PID.TID 0000.0001)                 9.217733826645589E+10,      /* I =242 */
(PID.TID 0000.0001)                 9.097828507498270E+10,      /* I =243 */
(PID.TID 0000.0001)                 8.920144688867136E+10,      /* I =244 */
(PID.TID 0000.0001)                 8.687244923847925E+10,      /* I =245 */
(PID.TID 0000.0001)                 8.402489455582884E+10,      /* I =246 */
(PID.TID 0000.0001)                 8.070033400481630E+10,      /* I =247 */
(PID.TID 0000.0001)                 7.694890654165292E+10,      /* I =248 */
(PID.TID 0000.0001)                 7.283130776157999E+10,      /* I =249 */
(PID.TID 0000.0001)                 6.842319715282995E+10,      /* I =250 */
(PID.TID 0000.0001)                 6.382388519537862E+10,      /* I =251 */
(PID.TID 0000.0001)                 5.917213486167289E+10,      /* I =252 */
(PID.TID 0000.0001)                 5.467231580448873E+10,      /* I =253 */
(PID.TID 0000.0001)                 5.062996293677739E+10,      /* I =254 */
(PID.TID 0000.0001)                 4.747577840755909E+10,      /* I =255 */
(PID.TID 0000.0001)                 4.571243814189866E+10,      /* I =256 */
(PID.TID 0000.0001)                 1.216690346714270E+10,      /* I =257 */
(PID.TID 0000.0001)                 2.390126200743558E+10,      /* I =258 */
(PID.TID 0000.0001)                 3.341968103208270E+10,      /* I =259 */
(PID.TID 0000.0001)                 4.168532893152940E+10,      /* I =260 */
(PID.TID 0000.0001)                 4.909074590409593E+10,      /* I =261 */
(PID.TID 0000.0001)                 5.581203765722643E+10,      /* I =262 */
(PID.TID 0000.0001)                 6.193257577506788E+10,      /* I =263 */
(PID.TID 0000.0001)                 6.748840226738273E+10,      /* I =264 */
(PID.TID 0000.0001)                 7.248875782324815E+10,      /* I =265 */
(PID.TID 0000.0001)                 7.692702995909871E+10,      /* I =266 */
(PID.TID 0000.0001)                 8.078743937057304E+10,      /* I =267 */
(PID.TID 0000.0001)                 8.404959656062837E+10,      /* I =268 */
(PID.TID 0000.0001)                 8.669186205742538E+10,      /* I =269 */
(PID.TID 0000.0001)                 8.869393350723613E+10,      /* I =270 */
(PID.TID 0000.0001)                 9.003884657168852E+10,      /* I =271 */
(PID.TID 0000.0001)     2 @  9.071447638299399E+10,             /* I =272:273 */
(PID.TID 0000.0001)                 9.003884657168852E+10,      /* I =274 */
(PID.TID 0000.0001)                 8.869393350723613E+10,      /* I =275 */
(PID.TID 0000.0001)                 8.669186205742538E+10,      /* I =276 */
(PID.TID 0000.0001)                 8.404959656062837E+10,      /* I =277 */
(PID.TID 0000.0001)                 8.078743937057304E+10,      /* I =278 */
(PID.TID 0000.0001)                 7.692702995909871E+10,      /* I =279 */
(PID.TID 0000.0001)                 7.248875782324815E+10,      /* I =280 */
(PID.TID 0000.0001)                 6.748840226738273E+10,      /* I =281 */
(PID.TID 0000.0001)                 6.193257577506788E+10,      /* I =282 */
(PID.TID 0000.0001)                 5.581203765722643E+10,      /* I =283 */
(PID.TID 0000.0001)                 4.909074590409593E+10,      /* I =284 */
(PID.TID 0000.0001)                 4.168532893152940E+10,      /* I =285 */
(PID.TID 0000.0001)                 3.341968103208270E+10,      /* I =286 */
(PID.TID 0000.0001)                 2.390126200743558E+10,      /* I =287 */
(PID.TID 0000.0001)                 1.216690346714270E+10,      /* I =288 */
(PID.TID 0000.0001)                 4.571243814189866E+10,      /* I =289 */
(PID.TID 0000.0001)                 4.747577840755909E+10,      /* I =290 */
(PID.TID 0000.0001)                 5.062996293677739E+10,      /* I =291 */
(PID.TID 0000.0001)                 5.467231580448873E+10,      /* I =292 */
(PID.TID 0000.0001)                 5.917213486167289E+10,      /* I =293 */
(PID.TID 0000.0001)                 6.382388519537862E+10,      /* I =294 */
(PID.TID 0000.0001)                 6.842319715282995E+10,      /* I =295 */
(PID.TID 0000.0001)                 7.283130776157999E+10,      /* I =296 */
(PID.TID 0000.0001)                 7.694890654165292E+10,      /* I =297 */
(PID.TID 0000.0001)                 8.070033400481630E+10,      /* I =298 */
(PID.TID 0000.0001)                 8.402489455582884E+10,      /* I =299 */
(PID.TID 0000.0001)                 8.687244923847925E+10,      /* I =300 */
(PID.TID 0000.0001)                 8.920144688867136E+10,      /* I =301 */
(PID.TID 0000.0001)                 9.097828507498270E+10,      /* I =302 */
(PID.TID 0000.0001)                 9.217733826645589E+10,      /* I =303 */
(PID.TID 0000.0001)                 9.278126467408592E+10,      /* I =304 */
(PID.TID 0000.0001)                 9.278126467409492E+10,      /* I =305 */
(PID.TID 0000.0001)                 9.217733826644687E+10,      /* I =306 */
(PID.TID 0000.0001)                 9.097828507499170E+10,      /* I =307 */
(PID.TID 0000.0001)                 8.920144688865334E+10,      /* I =308 */
(PID.TID 0000.0001)                 8.687244923850627E+10,      /* I =309 */
(PID.TID 0000.0001)                 8.402489455586488E+10,      /* I =310 */
(PID.TID 0000.0001)                 8.070033400484334E+10,      /* I =311 */
(PID.TID 0000.0001)                 7.694890654164391E+10,      /* I =312 */
(PID.TID 0000.0001)                 7.283130776162505E+10,      /* I =313 */
(PID.TID 0000.0001)                 6.842319715282094E+10,      /* I =314 */
(PID.TID 0000.0001)                 6.382388519540565E+10,      /* I =315 */
(PID.TID 0000.0001)                 5.917213486169992E+10,      /* I =316 */
(PID.TID 0000.0001)                 5.467231580449774E+10,      /* I =317 */
(PID.TID 0000.0001)                 5.062996293675036E+10,      /* I =318 */
(PID.TID 0000.0001)                 4.747577840754108E+10,      /* I =319 */
(PID.TID 0000.0001)                 4.571243814190767E+10,      /* I =320 */
(PID.TID 0000.0001)                 7.014205907741882E+10,      /* I =321 */
(PID.TID 0000.0001)                 7.080359444504936E+10,      /* I =322 */
(PID.TID 0000.0001)                 7.207697049620459E+10,      /* I =323 */
(PID.TID 0000.0001)                 7.387277930931242E+10,      /* I =324 */
(PID.TID 0000.0001)                 7.607731167898732E+10,      /* I =325 */
(PID.TID 0000.0001)                 7.856766377620157E+10,      /* I =326 */
(PID.TID 0000.0001)                 8.122290115046133E+10,      /* I =327 */
(PID.TID 0000.0001)                 8.393053257718672E+10,      /* I =328 */
(PID.TID 0000.0001)                 8.658933893113814E+10,      /* I =329 */
(PID.TID 0000.0001)                 8.911005636635672E+10,      /* I =330 */
(PID.TID 0000.0001)                 9.141512166179512E+10,      /* I =331 */
(PID.TID 0000.0001)                 9.343821140059109E+10,      /* I =332 */
(PID.TID 0000.0001)                 9.512391461452121E+10,      /* I =333 */
(PID.TID 0000.0001)                 9.642763033423941E+10,      /* I =334 */
(PID.TID 0000.0001)                 9.731565189660542E+10,      /* I =335 */
(PID.TID 0000.0001)                 9.776536132332361E+10,      /* I =336 */
(PID.TID 0000.0001)                 9.776536132335065E+10,      /* I =337 */
(PID.TID 0000.0001)                 9.731565189661444E+10,      /* I =338 */
(PID.TID 0000.0001)                 9.642763033424841E+10,      /* I =339 */
(PID.TID 0000.0001)                 9.512391461453923E+10,      /* I =340 */
(PID.TID 0000.0001)                 9.343821140062714E+10,      /* I =341 */
(PID.TID 0000.0001)                 9.141512166177710E+10,      /* I =342 */
(PID.TID 0000.0001)                 8.911005636639276E+10,      /* I =343 */
(PID.TID 0000.0001)                 8.658933893111111E+10,      /* I =344 */
(PID.TID 0000.0001)                 8.393053257714168E+10,      /* I =345 */
(PID.TID 0000.0001)                 8.122290115048837E+10,      /* I =346 */
(PID.TID 0000.0001)                 7.856766377623761E+10,      /* I =347 */
(PID.TID 0000.0001)                 7.607731167900534E+10,      /* I =348 */
(PID.TID 0000.0001)                 7.387277930931242E+10,      /* I =349 */
(PID.TID 0000.0001)                 7.207697049617757E+10,      /* I =350 */
(PID.TID 0000.0001)                 7.080359444504936E+10,      /* I =351 */
(PID.TID 0000.0001)                 7.014205907742783E+10,      /* I =352 */
(PID.TID 0000.0001)                 8.549360686473492E+10,      /* I =353 */
(PID.TID 0000.0001)                 8.584306032891338E+10,      /* I =354 */
(PID.TID 0000.0001)                 8.652588999621022E+10,      /* I =355 */
(PID.TID 0000.0001)                 8.751117576829997E+10,      /* I =356 */
(PID.TID 0000.0001)                 8.875538179479057E+10,      /* I =357 */
(PID.TID 0000.0001)                 9.020518786587576E+10,      /* I =358 */
(PID.TID 0000.0001)                 9.180052507543143E+10,      /* I =359 */
(PID.TID 0000.0001)                 9.347751054425339E+10,      /* I =360 */
(PID.TID 0000.0001)                 9.517111234598198E+10,      /* I =361 */
(PID.TID 0000.0001)                 9.681749461729144E+10,      /* I =362 */
(PID.TID 0000.0001)                 9.835606459235127E+10,      /* I =363 */
(PID.TID 0000.0001)                 9.973126714698372E+10,      /* I =364 */
(PID.TID 0000.0001)                 1.008941633474940E+11,      /* I =365 */
(PID.TID 0000.0001)                 1.018038055521548E+11,      /* I =366 */
(PID.TID 0000.0001)                 1.024283970246639E+11,      /* I =367 */
(PID.TID 0000.0001)     2 @  1.027462190489479E+11,             /* I =368:369 */
(PID.TID 0000.0001)                 1.024283970246639E+11,      /* I =370 */
(PID.TID 0000.0001)                 1.018038055521548E+11,      /* I =371 */
(PID.TID 0000.0001)                 1.008941633475211E+11,      /* I =372 */
(PID.TID 0000.0001)                 9.973126714696570E+10,      /* I =373 */
(PID.TID 0000.0001)                 9.835606459229723E+10,      /* I =374 */
(PID.TID 0000.0001)                 9.681749461729144E+10,      /* I =375 */
(PID.TID 0000.0001)                 9.517111234598198E+10,      /* I =376 */
(PID.TID 0000.0001)                 9.347751054428943E+10,      /* I =377 */
(PID.TID 0000.0001)                 9.180052507539539E+10,      /* I =378 */
(PID.TID 0000.0001)                 9.020518786587576E+10,      /* I =379 */
(PID.TID 0000.0001)                 8.875538179481760E+10,      /* I =380 */
(PID.TID 0000.0001)                 8.751117576832700E+10,      /* I =381 */
(PID.TID 0000.0001)                 8.652588999617418E+10,      /* I =382 */
(PID.TID 0000.0001)                 8.584306032892239E+10,      /* I =383 */
(PID.TID 0000.0001)                 8.549360686467184E+10,      /* I =384 */
(PID.TID 0000.0001)                 9.083293515008307E+10,      /* I =385 */
(PID.TID 0000.0001)                 9.110170898494536E+10,      /* I =386 */
(PID.TID 0000.0001)                 9.162886297688426E+10,      /* I =387 */
(PID.TID 0000.0001)                 9.239403136821951E+10,      /* I =388 */
(PID.TID 0000.0001)                 9.336769520564153E+10,      /* I =389 */
(PID.TID 0000.0001)                 9.451235404855287E+10,      /* I =390 */
(PID.TID 0000.0001)                 9.578399259392229E+10,      /* I =391 */
(PID.TID 0000.0001)                 9.713377776174072E+10,      /* I =392 */
(PID.TID 0000.0001)                 9.850992024629108E+10,      /* I =393 */
(PID.TID 0000.0001)                 9.985963523714983E+10,      /* I =394 */
(PID.TID 0000.0001)                 1.011311375396738E+11,      /* I =395 */
(PID.TID 0000.0001)                 1.022756055022041E+11,      /* I =396 */
(PID.TID 0000.0001)                 1.032490462723345E+11,      /* I =397 */
(PID.TID 0000.0001)                 1.040139933533592E+11,      /* I =398 */
(PID.TID 0000.0001)                 1.045409681097387E+11,      /* I =399 */
(PID.TID 0000.0001)     2 @  1.048096527455915E+11,             /* I =400:401 */
(PID.TID 0000.0001)                 1.045409681097387E+11,      /* I =402 */
(PID.TID 0000.0001)                 1.040139933533592E+11,      /* I =403 */
(PID.TID 0000.0001)                 1.032490462723345E+11,      /* I =404 */
(PID.TID 0000.0001)                 1.022756055022041E+11,      /* I =405 */
(PID.TID 0000.0001)                 1.011311375396738E+11,      /* I =406 */
(PID.TID 0000.0001)                 9.985963523714983E+10,      /* I =407 */
(PID.TID 0000.0001)                 9.850992024629108E+10,      /* I =408 */
(PID.TID 0000.0001)                 9.713377776174072E+10,      /* I =409 */
(PID.TID 0000.0001)                 9.578399259392229E+10,      /* I =410 */
(PID.TID 0000.0001)                 9.451235404855287E+10,      /* I =411 */
(PID.TID 0000.0001)                 9.336769520564153E+10,      /* I =412 */
(PID.TID 0000.0001)                 9.239403136821951E+10,      /* I =413 */
(PID.TID 0000.0001)                 9.162886297688426E+10,      /* I =414 */
(PID.TID 0000.0001)                 9.110170898494536E+10,      /* I =415 */
(PID.TID 0000.0001)                 9.083293515008307E+10,      /* I =416 */
(PID.TID 0000.0001)                 8.549360686467184E+10,      /* I =417 */
(PID.TID 0000.0001)                 8.584306032892239E+10,      /* I =418 */
(PID.TID 0000.0001)                 8.652588999617418E+10,      /* I =419 */
(PID.TID 0000.0001)                 8.751117576832700E+10,      /* I =420 */
(PID.TID 0000.0001)                 8.875538179481760E+10,      /* I =421 */
(PID.TID 0000.0001)                 9.020518786587576E+10,      /* I =422 */
(PID.TID 0000.0001)                 9.180052507539539E+10,      /* I =423 */
(PID.TID 0000.0001)                 9.347751054428943E+10,      /* I =424 */
(PID.TID 0000.0001)                 9.517111234598198E+10,      /* I =425 */
(PID.TID 0000.0001)                 9.681749461729144E+10,      /* I =426 */
(PID.TID 0000.0001)                 9.835606459229723E+10,      /* I =427 */
(PID.TID 0000.0001)                 9.973126714696570E+10,      /* I =428 */
(PID.TID 0000.0001)                 1.008941633475211E+11,      /* I =429 */
(PID.TID 0000.0001)                 1.018038055521548E+11,      /* I =430 */
(PID.TID 0000.0001)                 1.024283970246639E+11,      /* I =431 */
(PID.TID 0000.0001)     2 @  1.027462190489479E+11,             /* I =432:433 */
(PID.TID 0000.0001)                 1.024283970246639E+11,      /* I =434 */
(PID.TID 0000.0001)                 1.018038055521548E+11,      /* I =435 */
(PID.TID 0000.0001)                 1.008941633474940E+11,      /* I =436 */
(PID.TID 0000.0001)                 9.973126714698372E+10,      /* I =437 */
(PID.TID 0000.0001)                 9.835606459235127E+10,      /* I =438 */
(PID.TID 0000.0001)                 9.681749461729144E+10,      /* I =439 */
(PID.TID 0000.0001)                 9.517111234598198E+10,      /* I =440 */
(PID.TID 0000.0001)                 9.347751054425339E+10,      /* I =441 */
(PID.TID 0000.0001)                 9.180052507543143E+10,      /* I =442 */
(PID.TID 0000.0001)                 9.020518786587576E+10,      /* I =443 */
(PID.TID 0000.0001)                 8.875538179479057E+10,      /* I =444 */
(PID.TID 0000.0001)                 8.751117576829997E+10,      /* I =445 */
(PID.TID 0000.0001)                 8.652588999621022E+10,      /* I =446 */
(PID.TID 0000.0001)                 8.584306032891338E+10,      /* I =447 */
(PID.TID 0000.0001)                 8.549360686473492E+10,      /* I =448 */
(PID.TID 0000.0001)                 7.014205907742783E+10,      /* I =449 */
(PID.TID 0000.0001)                 7.080359444504936E+10,      /* I =450 */
(PID.TID 0000.0001)                 7.207697049617757E+10,      /* I =451 */
(PID.TID 0000.0001)                 7.387277930931242E+10,      /* I =452 */
(PID.TID 0000.0001)                 7.607731167900534E+10,      /* I =453 */
(PID.TID 0000.0001)                 7.856766377623761E+10,      /* I =454 */
(PID.TID 0000.0001)                 8.122290115048837E+10,      /* I =455 */
(PID.TID 0000.0001)                 8.393053257714168E+10,      /* I =456 */
(PID.TID 0000.0001)                 8.658933893111111E+10,      /* I =457 */
(PID.TID 0000.0001)                 8.911005636639276E+10,      /* I =458 */
(PID.TID 0000.0001)                 9.141512166177710E+10,      /* I =459 */
(PID.TID 0000.0001)                 9.343821140062714E+10,      /* I =460 */
(PID.TID 0000.0001)                 9.512391461453923E+10,      /* I =461 */
(PID.TID 0000.0001)                 9.642763033424841E+10,      /* I =462 */
(PID.TID 0000.0001)                 9.731565189661444E+10,      /* I =463 */
(PID.TID 0000.0001)                 9.776536132335065E+10,      /* I =464 */
(PID.TID 0000.0001)                 9.776536132332361E+10,      /* I =465 */
(PID.TID 0000.0001)                 9.731565189660542E+10,      /* I =466 */
(PID.TID 0000.0001)                 9.642763033423941E+10,      /* I =467 */
(PID.TID 0000.0001)                 9.512391461452121E+10,      /* I =468 */
(PID.TID 0000.0001)                 9.343821140059109E+10,      /* I =469 */
(PID.TID 0000.0001)                 9.141512166179512E+10,      /* I =470 */
(PID.TID 0000.0001)                 8.911005636635672E+10,      /* I =471 */
(PID.TID 0000.0001)                 8.658933893113814E+10,      /* I =472 */
(PID.TID 0000.0001)                 8.393053257718672E+10,      /* I =473 */
(PID.TID 0000.0001)                 8.122290115046133E+10,      /* I =474 */
(PID.TID 0000.0001)                 7.856766377620157E+10,      /* I =475 */
(PID.TID 0000.0001)                 7.607731167898732E+10,      /* I =476 */
(PID.TID 0000.0001)                 7.387277930931242E+10,      /* I =477 */
(PID.TID 0000.0001)                 7.207697049620459E+10,      /* I =478 */
(PID.TID 0000.0001)                 7.080359444504936E+10,      /* I =479 */
(PID.TID 0000.0001)                 7.014205907741882E+10,      /* I =480 */
(PID.TID 0000.0001)                 4.571243814190767E+10,      /* I =481 */
(PID.TID 0000.0001)                 4.747577840754108E+10,      /* I =482 */
(PID.TID 0000.0001)                 5.062996293675036E+10,      /* I =483 */
(PID.TID 0000.0001)                 5.467231580449774E+10,      /* I =484 */
(PID.TID 0000.0001)                 5.917213486169992E+10,      /* I =485 */
(PID.TID 0000.0001)                 6.382388519540565E+10,      /* I =486 */
(PID.TID 0000.0001)                 6.842319715282094E+10,      /* I =487 */
(PID.TID 0000.0001)                 7.283130776162505E+10,      /* I =488 */
(PID.TID 0000.0001)                 7.694890654164391E+10,      /* I =489 */
(PID.TID 0000.0001)                 8.070033400484334E+10,      /* I =490 */
(PID.TID 0000.0001)                 8.402489455586488E+10,      /* I =491 */
(PID.TID 0000.0001)                 8.687244923850627E+10,      /* I =492 */
(PID.TID 0000.0001)                 8.920144688865334E+10,      /* I =493 */
(PID.TID 0000.0001)                 9.097828507499170E+10,      /* I =494 */
(PID.TID 0000.0001)                 9.217733826644687E+10,      /* I =495 */
(PID.TID 0000.0001)                 9.278126467409492E+10,      /* I =496 */
(PID.TID 0000.0001)                 9.278126467408592E+10,      /* I =497 */
(PID.TID 0000.0001)                 9.217733826645589E+10,      /* I =498 */
(PID.TID 0000.0001)                 9.097828507498270E+10,      /* I =499 */
(PID.TID 0000.0001)                 8.920144688867136E+10,      /* I =500 */
(PID.TID 0000.0001)                 8.687244923847925E+10,      /* I =501 */
(PID.TID 0000.0001)                 8.402489455582884E+10,      /* I =502 */
(PID.TID 0000.0001)                 8.070033400481630E+10,      /* I =503 */
(PID.TID 0000.0001)                 7.694890654165292E+10,      /* I =504 */
(PID.TID 0000.0001)                 7.283130776157999E+10,      /* I =505 */
(PID.TID 0000.0001)                 6.842319715282995E+10,      /* I =506 */
(PID.TID 0000.0001)                 6.382388519537862E+10,      /* I =507 */
(PID.TID 0000.0001)                 5.917213486167289E+10,      /* I =508 */
(PID.TID 0000.0001)                 5.467231580448873E+10,      /* I =509 */
(PID.TID 0000.0001)                 5.062996293677739E+10,      /* I =510 */
(PID.TID 0000.0001)                 4.747577840755909E+10,      /* I =511 */
(PID.TID 0000.0001)                 4.571243814189866E+10,      /* I =512 */
(PID.TID 0000.0001)                 1.216690346714270E+10,      /* I =513 */
(PID.TID 0000.0001)                 2.390126200743558E+10,      /* I =514 */
(PID.TID 0000.0001)                 3.341968103208270E+10,      /* I =515 */
(PID.TID 0000.0001)                 4.168532893152940E+10,      /* I =516 */
(PID.TID 0000.0001)                 4.909074590409593E+10,      /* I =517 */
(PID.TID 0000.0001)                 5.581203765722643E+10,      /* I =518 */
(PID.TID 0000.0001)                 6.193257577506788E+10,      /* I =519 */
(PID.TID 0000.0001)                 6.748840226738273E+10,      /* I =520 */
(PID.TID 0000.0001)                 7.248875782324815E+10,      /* I =521 */
(PID.TID 0000.0001)                 7.692702995909871E+10,      /* I =522 */
(PID.TID 0000.0001)                 8.078743937057304E+10,      /* I =523 */
(PID.TID 0000.0001)                 8.404959656062837E+10,      /* I =524 */
(PID.TID 0000.0001)                 8.669186205742538E+10,      /* I =525 */
(PID.TID 0000.0001)                 8.869393350723613E+10,      /* I =526 */
(PID.TID 0000.0001)                 9.003884657168852E+10,      /* I =527 */
(PID.TID 0000.0001)     2 @  9.071447638299399E+10,             /* I =528:529 */
(PID.TID 0000.0001)                 9.003884657168852E+10,      /* I =530 */
(PID.TID 0000.0001)                 8.869393350723613E+10,      /* I =531 */
(PID.TID 0000.0001)                 8.669186205742538E+10,      /* I =532 */
(PID.TID 0000.0001)                 8.404959656062837E+10,      /* I =533 */
(PID.TID 0000.0001)                 8.078743937057304E+10,      /* I =534 */
(PID.TID 0000.0001)                 7.692702995909871E+10,      /* I =535 */
(PID.TID 0000.0001)                 7.248875782324815E+10,      /* I =536 */
(PID.TID 0000.0001)                 6.748840226738273E+10,      /* I =537 */
(PID.TID 0000.0001)                 6.193257577506788E+10,      /* I =538 */
(PID.TID 0000.0001)                 5.581203765722643E+10,      /* I =539 */
(PID.TID 0000.0001)                 4.909074590409593E+10,      /* I =540 */
(PID.TID 0000.0001)                 4.168532893152940E+10,      /* I =541 */
(PID.TID 0000.0001)                 3.341968103208270E+10,      /* I =542 */
(PID.TID 0000.0001)                 2.390126200743558E+10,      /* I =543 */
(PID.TID 0000.0001)                 1.216690346714270E+10,      /* I =544 */
(PID.TID 0000.0001)                 4.571243814189866E+10,      /* I =545 */
(PID.TID 0000.0001)                 4.747577840755909E+10,      /* I =546 */
(PID.TID 0000.0001)                 5.062996293677739E+10,      /* I =547 */
(PID.TID 0000.0001)                 5.467231580448873E+10,      /* I =548 */
(PID.TID 0000.0001)                 5.917213486167289E+10,      /* I =549 */
(PID.TID 0000.0001)                 6.382388519537862E+10,      /* I =550 */
(PID.TID 0000.0001)                 6.842319715282995E+10,      /* I =551 */
(PID.TID 0000.0001)                 7.283130776157999E+10,      /* I =552 */
(PID.TID 0000.0001)                 7.694890654165292E+10,      /* I =553 */
(PID.TID 0000.0001)                 8.070033400481630E+10,      /* I =554 */
(PID.TID 0000.0001)                 8.402489455582884E+10,      /* I =555 */
(PID.TID 0000.0001)                 8.687244923847925E+10,      /* I =556 */
(PID.TID 0000.0001)                 8.920144688867136E+10,      /* I =557 */
(PID.TID 0000.0001)                 9.097828507498270E+10,      /* I =558 */
(PID.TID 0000.0001)                 9.217733826645589E+10,      /* I =559 */
(PID.TID 0000.0001)                 9.278126467408592E+10,      /* I =560 */
(PID.TID 0000.0001)                 9.278126467409492E+10,      /* I =561 */
(PID.TID 0000.0001)                 9.217733826644687E+10,      /* I =562 */
(PID.TID 0000.0001)                 9.097828507499170E+10,      /* I =563 */
(PID.TID 0000.0001)                 8.920144688865334E+10,      /* I =564 */
(PID.TID 0000.0001)                 8.687244923850627E+10,      /* I =565 */
(PID.TID 0000.0001)                 8.402489455586488E+10,      /* I =566 */
(PID.TID 0000.0001)                 8.070033400484334E+10,      /* I =567 */
(PID.TID 0000.0001)                 7.694890654164391E+10,      /* I =568 */
(PID.TID 0000.0001)                 7.283130776162505E+10,      /* I =569 */
(PID.TID 0000.0001)                 6.842319715282094E+10,      /* I =570 */
(PID.TID 0000.0001)                 6.382388519540565E+10,      /* I =571 */
(PID.TID 0000.0001)                 5.917213486169992E+10,      /* I =572 */
(PID.TID 0000.0001)                 5.467231580449774E+10,      /* I =573 */
(PID.TID 0000.0001)                 5.062996293675036E+10,      /* I =574 */
(PID.TID 0000.0001)                 4.747577840754108E+10,      /* I =575 */
(PID.TID 0000.0001)                 4.571243814190767E+10,      /* I =576 */
(PID.TID 0000.0001)                 7.014205907741882E+10,      /* I =577 */
(PID.TID 0000.0001)                 7.080359444504936E+10,      /* I =578 */
(PID.TID 0000.0001)                 7.207697049620459E+10,      /* I =579 */
(PID.TID 0000.0001)                 7.387277930931242E+10,      /* I =580 */
(PID.TID 0000.0001)                 7.607731167898732E+10,      /* I =581 */
(PID.TID 0000.0001)                 7.856766377620157E+10,      /* I =582 */
(PID.TID 0000.0001)                 8.122290115046133E+10,      /* I =583 */
(PID.TID 0000.0001)                 8.393053257718672E+10,      /* I =584 */
(PID.TID 0000.0001)                 8.658933893113814E+10,      /* I =585 */
(PID.TID 0000.0001)                 8.911005636635672E+10,      /* I =586 */
(PID.TID 0000.0001)                 9.141512166179512E+10,      /* I =587 */
(PID.TID 0000.0001)                 9.343821140059109E+10,      /* I =588 */
(PID.TID 0000.0001)                 9.512391461452121E+10,      /* I =589 */
(PID.TID 0000.0001)                 9.642763033423941E+10,      /* I =590 */
(PID.TID 0000.0001)                 9.731565189660542E+10,      /* I =591 */
(PID.TID 0000.0001)                 9.776536132332361E+10,      /* I =592 */
(PID.TID 0000.0001)                 9.776536132335065E+10,      /* I =593 */
(PID.TID 0000.0001)                 9.731565189661444E+10,      /* I =594 */
(PID.TID 0000.0001)                 9.642763033424841E+10,      /* I =595 */
(PID.TID 0000.0001)                 9.512391461453923E+10,      /* I =596 */
(PID.TID 0000.0001)                 9.343821140062714E+10,      /* I =597 */
(PID.TID 0000.0001)                 9.141512166177710E+10,      /* I =598 */
(PID.TID 0000.0001)                 8.911005636639276E+10,      /* I =599 */
(PID.TID 0000.0001)                 8.658933893111111E+10,      /* I =600 */
(PID.TID 0000.0001)                 8.393053257714168E+10,      /* I =601 */
(PID.TID 0000.0001)                 8.122290115048837E+10,      /* I =602 */
(PID.TID 0000.0001)                 7.856766377623761E+10,      /* I =603 */
(PID.TID 0000.0001)                 7.607731167900534E+10,      /* I =604 */
(PID.TID 0000.0001)                 7.387277930931242E+10,      /* I =605 */
(PID.TID 0000.0001)                 7.207697049617757E+10,      /* I =606 */
(PID.TID 0000.0001)                 7.080359444504936E+10,      /* I =607 */
(PID.TID 0000.0001)                 7.014205907742783E+10,      /* I =608 */
(PID.TID 0000.0001)                 8.549360686473492E+10,      /* I =609 */
(PID.TID 0000.0001)                 8.584306032891338E+10,      /* I =610 */
(PID.TID 0000.0001)                 8.652588999621022E+10,      /* I =611 */
(PID.TID 0000.0001)                 8.751117576829997E+10,      /* I =612 */
(PID.TID 0000.0001)                 8.875538179479057E+10,      /* I =613 */
(PID.TID 0000.0001)                 9.020518786587576E+10,      /* I =614 */
(PID.TID 0000.0001)                 9.180052507543143E+10,      /* I =615 */
(PID.TID 0000.0001)                 9.347751054425339E+10,      /* I =616 */
(PID.TID 0000.0001)                 9.517111234598198E+10,      /* I =617 */
(PID.TID 0000.0001)                 9.681749461729144E+10,      /* I =618 */
(PID.TID 0000.0001)                 9.835606459235127E+10,      /* I =619 */
(PID.TID 0000.0001)                 9.973126714698372E+10,      /* I =620 */
(PID.TID 0000.0001)                 1.008941633474940E+11,      /* I =621 */
(PID.TID 0000.0001)                 1.018038055521548E+11,      /* I =622 */
(PID.TID 0000.0001)                 1.024283970246639E+11,      /* I =623 */
(PID.TID 0000.0001)     2 @  1.027462190489479E+11,             /* I =624:625 */
(PID.TID 0000.0001)                 1.024283970246639E+11,      /* I =626 */
(PID.TID 0000.0001)                 1.018038055521548E+11,      /* I =627 */
(PID.TID 0000.0001)                 1.008941633475211E+11,      /* I =628 */
(PID.TID 0000.0001)                 9.973126714696570E+10,      /* I =629 */
(PID.TID 0000.0001)                 9.835606459229723E+10,      /* I =630 */
(PID.TID 0000.0001)                 9.681749461729144E+10,      /* I =631 */
(PID.TID 0000.0001)                 9.517111234598198E+10,      /* I =632 */
(PID.TID 0000.0001)                 9.347751054428943E+10,      /* I =633 */
(PID.TID 0000.0001)                 9.180052507539539E+10,      /* I =634 */
(PID.TID 0000.0001)                 9.020518786587576E+10,      /* I =635 */
(PID.TID 0000.0001)                 8.875538179481760E+10,      /* I =636 */
(PID.TID 0000.0001)                 8.751117576832700E+10,      /* I =637 */
(PID.TID 0000.0001)                 8.652588999617418E+10,      /* I =638 */
(PID.TID 0000.0001)                 8.584306032892239E+10,      /* I =639 */
(PID.TID 0000.0001)                 8.549360686467184E+10,      /* I =640 */
(PID.TID 0000.0001)                 9.083293515008307E+10,      /* I =641 */
(PID.TID 0000.0001)                 9.110170898494536E+10,      /* I =642 */
(PID.TID 0000.0001)                 9.162886297688426E+10,      /* I =643 */
(PID.TID 0000.0001)                 9.239403136821951E+10,      /* I =644 */
(PID.TID 0000.0001)                 9.336769520564153E+10,      /* I =645 */
(PID.TID 0000.0001)                 9.451235404855287E+10,      /* I =646 */
(PID.TID 0000.0001)                 9.578399259392229E+10,      /* I =647 */
(PID.TID 0000.0001)                 9.713377776174072E+10,      /* I =648 */
(PID.TID 0000.0001)                 9.850992024629108E+10,      /* I =649 */
(PID.TID 0000.0001)                 9.985963523714983E+10,      /* I =650 */
(PID.TID 0000.0001)                 1.011311375396738E+11,      /* I =651 */
(PID.TID 0000.0001)                 1.022756055022041E+11,      /* I =652 */
(PID.TID 0000.0001)                 1.032490462723345E+11,      /* I =653 */
(PID.TID 0000.0001)                 1.040139933533592E+11,      /* I =654 */
(PID.TID 0000.0001)                 1.045409681097387E+11,      /* I =655 */
(PID.TID 0000.0001)     2 @  1.048096527455915E+11,             /* I =656:657 */
(PID.TID 0000.0001)                 1.045409681097387E+11,      /* I =658 */
(PID.TID 0000.0001)                 1.040139933533592E+11,      /* I =659 */
(PID.TID 0000.0001)                 1.032490462723345E+11,      /* I =660 */
(PID.TID 0000.0001)                 1.022756055022041E+11,      /* I =661 */
(PID.TID 0000.0001)                 1.011311375396738E+11,      /* I =662 */
(PID.TID 0000.0001)                 9.985963523714983E+10,      /* I =663 */
(PID.TID 0000.0001)                 9.850992024629108E+10,      /* I =664 */
(PID.TID 0000.0001)                 9.713377776174072E+10,      /* I =665 */
(PID.TID 0000.0001)                 9.578399259392229E+10,      /* I =666 */
(PID.TID 0000.0001)                 9.451235404855287E+10,      /* I =667 */
(PID.TID 0000.0001)                 9.336769520564153E+10,      /* I =668 */
(PID.TID 0000.0001)                 9.239403136821951E+10,      /* I =669 */
(PID.TID 0000.0001)                 9.162886297688426E+10,      /* I =670 */
(PID.TID 0000.0001)                 9.110170898494536E+10,      /* I =671 */
(PID.TID 0000.0001)                 9.083293515008307E+10,      /* I =672 */
(PID.TID 0000.0001)                 8.549360686467184E+10,      /* I =673 */
(PID.TID 0000.0001)                 8.584306032892239E+10,      /* I =674 */
(PID.TID 0000.0001)                 8.652588999617418E+10,      /* I =675 */
(PID.TID 0000.0001)                 8.751117576832700E+10,      /* I =676 */
(PID.TID 0000.0001)                 8.875538179481760E+10,      /* I =677 */
(PID.TID 0000.0001)                 9.020518786587576E+10,      /* I =678 */
(PID.TID 0000.0001)                 9.180052507539539E+10,      /* I =679 */
(PID.TID 0000.0001)                 9.347751054428943E+10,      /* I =680 */
(PID.TID 0000.0001)                 9.517111234598198E+10,      /* I =681 */
(PID.TID 0000.0001)                 9.681749461729144E+10,      /* I =682 */
(PID.TID 0000.0001)                 9.835606459229723E+10,      /* I =683 */
(PID.TID 0000.0001)                 9.973126714696570E+10,      /* I =684 */
(PID.TID 0000.0001)                 1.008941633475211E+11,      /* I =685 */
(PID.TID 0000.0001)                 1.018038055521548E+11,      /* I =686 */
(PID.TID 0000.0001)                 1.024283970246639E+11,      /* I =687 */
(PID.TID 0000.0001)     2 @  1.027462190489479E+11,             /* I =688:689 */
(PID.TID 0000.0001)                 1.024283970246639E+11,      /* I =690 */
(PID.TID 0000.0001)                 1.018038055521548E+11,      /* I =691 */
(PID.TID 0000.0001)                 1.008941633474940E+11,      /* I =692 */
(PID.TID 0000.0001)                 9.973126714698372E+10,      /* I =693 */
(PID.TID 0000.0001)                 9.835606459235127E+10,      /* I =694 */
(PID.TID 0000.0001)                 9.681749461729144E+10,      /* I =695 */
(PID.TID 0000.0001)                 9.517111234598198E+10,      /* I =696 */
(PID.TID 0000.0001)                 9.347751054425339E+10,      /* I =697 */
(PID.TID 0000.0001)                 9.180052507543143E+10,      /* I =698 */
(PID.TID 0000.0001)                 9.020518786587576E+10,      /* I =699 */
(PID.TID 0000.0001)                 8.875538179479057E+10,      /* I =700 */
(PID.TID 0000.0001)                 8.751117576829997E+10,      /* I =701 */
(PID.TID 0000.0001)                 8.652588999621022E+10,      /* I =702 */
(PID.TID 0000.0001)                 8.584306032891338E+10,      /* I =703 */
(PID.TID 0000.0001)                 8.549360686473492E+10,      /* I =704 */
(PID.TID 0000.0001)                 7.014205907742783E+10,      /* I =705 */
(PID.TID 0000.0001)                 7.080359444504936E+10,      /* I =706 */
(PID.TID 0000.0001)                 7.207697049617757E+10,      /* I =707 */
(PID.TID 0000.0001)                 7.387277930931242E+10,      /* I =708 */
(PID.TID 0000.0001)                 7.607731167900534E+10,      /* I =709 */
(PID.TID 0000.0001)                 7.856766377623761E+10,      /* I =710 */
(PID.TID 0000.0001)                 8.122290115048837E+10,      /* I =711 */
(PID.TID 0000.0001)                 8.393053257714168E+10,      /* I =712 */
(PID.TID 0000.0001)                 8.658933893111111E+10,      /* I =713 */
(PID.TID 0000.0001)                 8.911005636639276E+10,      /* I =714 */
(PID.TID 0000.0001)                 9.141512166177710E+10,      /* I =715 */
(PID.TID 0000.0001)                 9.343821140062714E+10,      /* I =716 */
(PID.TID 0000.0001)                 9.512391461453923E+10,      /* I =717 */
(PID.TID 0000.0001)                 9.642763033424841E+10,      /* I =718 */
(PID.TID 0000.0001)                 9.731565189661444E+10,      /* I =719 */
(PID.TID 0000.0001)                 9.776536132335065E+10,      /* I =720 */
(PID.TID 0000.0001)                 9.776536132332361E+10,      /* I =721 */
(PID.TID 0000.0001)                 9.731565189660542E+10,      /* I =722 */
(PID.TID 0000.0001)                 9.642763033423941E+10,      /* I =723 */
(PID.TID 0000.0001)                 9.512391461452121E+10,      /* I =724 */
(PID.TID 0000.0001)                 9.343821140059109E+10,      /* I =725 */
(PID.TID 0000.0001)                 9.141512166179512E+10,      /* I =726 */
(PID.TID 0000.0001)                 8.911005636635672E+10,      /* I =727 */
(PID.TID 0000.0001)                 8.658933893113814E+10,      /* I =728 */
(PID.TID 0000.0001)                 8.393053257718672E+10,      /* I =729 */
(PID.TID 0000.0001)                 8.122290115046133E+10,      /* I =730 */
(PID.TID 0000.0001)                 7.856766377620157E+10,      /* I =731 */
(PID.TID 0000.0001)                 7.607731167898732E+10,      /* I =732 */
(PID.TID 0000.0001)                 7.387277930931242E+10,      /* I =733 */
(PID.TID 0000.0001)                 7.207697049620459E+10,      /* I =734 */
(PID.TID 0000.0001)                 7.080359444504936E+10,      /* I =735 */
(PID.TID 0000.0001)                 7.014205907741882E+10,      /* I =736 */
(PID.TID 0000.0001)                 4.571243814190767E+10,      /* I =737 */
(PID.TID 0000.0001)                 4.747577840754108E+10,      /* I =738 */
(PID.TID 0000.0001)                 5.062996293675036E+10,      /* I =739 */
(PID.TID 0000.0001)                 5.467231580449774E+10,      /* I =740 */
(PID.TID 0000.0001)                 5.917213486169992E+10,      /* I =741 */
(PID.TID 0000.0001)                 6.382388519540565E+10,      /* I =742 */
(PID.TID 0000.0001)                 6.842319715282094E+10,      /* I =743 */
(PID.TID 0000.0001)                 7.283130776162505E+10,      /* I =744 */
(PID.TID 0000.0001)                 7.694890654164391E+10,      /* I =745 */
(PID.TID 0000.0001)                 8.070033400484334E+10,      /* I =746 */
(PID.TID 0000.0001)                 8.402489455586488E+10,      /* I =747 */
(PID.TID 0000.0001)                 8.687244923850627E+10,      /* I =748 */
(PID.TID 0000.0001)                 8.920144688865334E+10,      /* I =749 */
(PID.TID 0000.0001)                 9.097828507499170E+10,      /* I =750 */
(PID.TID 0000.0001)                 9.217733826644687E+10,      /* I =751 */
(PID.TID 0000.0001)                 9.278126467409492E+10,      /* I =752 */
(PID.TID 0000.0001)                 9.278126467408592E+10,      /* I =753 */
(PID.TID 0000.0001)                 9.217733826645589E+10,      /* I =754 */
(PID.TID 0000.0001)                 9.097828507498270E+10,      /* I =755 */
(PID.TID 0000.0001)                 8.920144688867136E+10,      /* I =756 */
(PID.TID 0000.0001)                 8.687244923847925E+10,      /* I =757 */
(PID.TID 0000.0001)                 8.402489455582884E+10,      /* I =758 */
(PID.TID 0000.0001)                 8.070033400481630E+10,      /* I =759 */
(PID.TID 0000.0001)                 7.694890654165292E+10,      /* I =760 */
(PID.TID 0000.0001)                 7.283130776157999E+10,      /* I =761 */
(PID.TID 0000.0001)                 6.842319715282995E+10,      /* I =762 */
(PID.TID 0000.0001)                 6.382388519537862E+10,      /* I =763 */
(PID.TID 0000.0001)                 5.917213486167289E+10,      /* I =764 */
(PID.TID 0000.0001)                 5.467231580448873E+10,      /* I =765 */
(PID.TID 0000.0001)                 5.062996293677739E+10,      /* I =766 */
(PID.TID 0000.0001)                 4.747577840755909E+10,      /* I =767 */
(PID.TID 0000.0001)                 4.571243814189866E+10,      /* I =768 */
(PID.TID 0000.0001)                 1.216690346714270E+10,      /* I =769 */
(PID.TID 0000.0001)                 2.390126200743558E+10,      /* I =770 */
(PID.TID 0000.0001)                 3.341968103208270E+10,      /* I =771 */
(PID.TID 0000.0001)                 4.168532893152940E+10,      /* I =772 */
(PID.TID 0000.0001)                 4.909074590409593E+10,      /* I =773 */
(PID.TID 0000.0001)                 5.581203765722643E+10,      /* I =774 */
(PID.TID 0000.0001)                 6.193257577506788E+10,      /* I =775 */
(PID.TID 0000.0001)                 6.748840226738273E+10,      /* I =776 */
(PID.TID 0000.0001)                 7.248875782324815E+10,      /* I =777 */
(PID.TID 0000.0001)                 7.692702995909871E+10,      /* I =778 */
(PID.TID 0000.0001)                 8.078743937057304E+10,      /* I =779 */
(PID.TID 0000.0001)                 8.404959656062837E+10,      /* I =780 */
(PID.TID 0000.0001)                 8.669186205742538E+10,      /* I =781 */
(PID.TID 0000.0001)                 8.869393350723613E+10,      /* I =782 */
(PID.TID 0000.0001)                 9.003884657168852E+10,      /* I =783 */
(PID.TID 0000.0001)     2 @  9.071447638299399E+10,             /* I =784:785 */
(PID.TID 0000.0001)                 9.003884657168852E+10,      /* I =786 */
(PID.TID 0000.0001)                 8.869393350723613E+10,      /* I =787 */
(PID.TID 0000.0001)                 8.669186205742538E+10,      /* I =788 */
(PID.TID 0000.0001)                 8.404959656062837E+10,      /* I =789 */
(PID.TID 0000.0001)                 8.078743937057304E+10,      /* I =790 */
(PID.TID 0000.0001)                 7.692702995909871E+10,      /* I =791 */
(PID.TID 0000.0001)                 7.248875782324815E+10,      /* I =792 */
(PID.TID 0000.0001)                 6.748840226738273E+10,      /* I =793 */
(PID.TID 0000.0001)                 6.193257577506788E+10,      /* I =794 */
(PID.TID 0000.0001)                 5.581203765722643E+10,      /* I =795 */
(PID.TID 0000.0001)                 4.909074590409593E+10,      /* I =796 */
(PID.TID 0000.0001)                 4.168532893152940E+10,      /* I =797 */
(PID.TID 0000.0001)                 3.341968103208270E+10,      /* I =798 */
(PID.TID 0000.0001)                 2.390126200743558E+10,      /* I =799 */
(PID.TID 0000.0001)                 1.216690346714270E+10,      /* I =800 */
(PID.TID 0000.0001)                 4.571243814189866E+10,      /* I =801 */
(PID.TID 0000.0001)                 4.747577840755909E+10,      /* I =802 */
(PID.TID 0000.0001)                 5.062996293677739E+10,      /* I =803 */
(PID.TID 0000.0001)                 5.467231580448873E+10,      /* I =804 */
(PID.TID 0000.0001)                 5.917213486167289E+10,      /* I =805 */
(PID.TID 0000.0001)                 6.382388519537862E+10,      /* I =806 */
(PID.TID 0000.0001)                 6.842319715282995E+10,      /* I =807 */
(PID.TID 0000.0001)                 7.283130776157999E+10,      /* I =808 */
(PID.TID 0000.0001)                 7.694890654165292E+10,      /* I =809 */
(PID.TID 0000.0001)                 8.070033400481630E+10,      /* I =810 */
(PID.TID 0000.0001)                 8.402489455582884E+10,      /* I =811 */
(PID.TID 0000.0001)                 8.687244923847925E+10,      /* I =812 */
(PID.TID 0000.0001)                 8.920144688867136E+10,      /* I =813 */
(PID.TID 0000.0001)                 9.097828507498270E+10,      /* I =814 */
(PID.TID 0000.0001)                 9.217733826645589E+10,      /* I =815 */
(PID.TID 0000.0001)                 9.278126467408592E+10,      /* I =816 */
(PID.TID 0000.0001)                 9.278126467409492E+10,      /* I =817 */
(PID.TID 0000.0001)                 9.217733826644687E+10,      /* I =818 */
(PID.TID 0000.0001)                 9.097828507499170E+10,      /* I =819 */
(PID.TID 0000.0001)                 8.920144688865334E+10,      /* I =820 */
(PID.TID 0000.0001)                 8.687244923850627E+10,      /* I =821 */
(PID.TID 0000.0001)                 8.402489455586488E+10,      /* I =822 */
(PID.TID 0000.0001)                 8.070033400484334E+10,      /* I =823 */
(PID.TID 0000.0001)                 7.694890654164391E+10,      /* I =824 */
(PID.TID 0000.0001)                 7.283130776162505E+10,      /* I =825 */
(PID.TID 0000.0001)                 6.842319715282094E+10,      /* I =826 */
(PID.TID 0000.0001)                 6.382388519540565E+10,      /* I =827 */
(PID.TID 0000.0001)                 5.917213486169992E+10,      /* I =828 */
(PID.TID 0000.0001)                 5.467231580449774E+10,      /* I =829 */
(PID.TID 0000.0001)                 5.062996293675036E+10,      /* I =830 */
(PID.TID 0000.0001)                 4.747577840754108E+10,      /* I =831 */
(PID.TID 0000.0001)                 4.571243814190767E+10,      /* I =832 */
(PID.TID 0000.0001)                 7.014205907741882E+10,      /* I =833 */
(PID.TID 0000.0001)                 7.080359444504936E+10,      /* I =834 */
(PID.TID 0000.0001)                 7.207697049620459E+10,      /* I =835 */
(PID.TID 0000.0001)                 7.387277930931242E+10,      /* I =836 */
(PID.TID 0000.0001)                 7.607731167898732E+10,      /* I =837 */
(PID.TID 0000.0001)                 7.856766377620157E+10,      /* I =838 */
(PID.TID 0000.0001)                 8.122290115046133E+10,      /* I =839 */
(PID.TID 0000.0001)                 8.393053257718672E+10,      /* I =840 */
(PID.TID 0000.0001)                 8.658933893113814E+10,      /* I =841 */
(PID.TID 0000.0001)                 8.911005636635672E+10,      /* I =842 */
(PID.TID 0000.0001)                 9.141512166179512E+10,      /* I =843 */
(PID.TID 0000.0001)                 9.343821140059109E+10,      /* I =844 */
(PID.TID 0000.0001)                 9.512391461452121E+10,      /* I =845 */
(PID.TID 0000.0001)                 9.642763033423941E+10,      /* I =846 */
(PID.TID 0000.0001)                 9.731565189660542E+10,      /* I =847 */
(PID.TID 0000.0001)                 9.776536132332361E+10,      /* I =848 */
(PID.TID 0000.0001)                 9.776536132335065E+10,      /* I =849 */
(PID.TID 0000.0001)                 9.731565189661444E+10,      /* I =850 */
(PID.TID 0000.0001)                 9.642763033424841E+10,      /* I =851 */
(PID.TID 0000.0001)                 9.512391461453923E+10,      /* I =852 */
(PID.TID 0000.0001)                 9.343821140062714E+10,      /* I =853 */
(PID.TID 0000.0001)                 9.141512166177710E+10,      /* I =854 */
(PID.TID 0000.0001)                 8.911005636639276E+10,      /* I =855 */
(PID.TID 0000.0001)                 8.658933893111111E+10,      /* I =856 */
(PID.TID 0000.0001)                 8.393053257714168E+10,      /* I =857 */
(PID.TID 0000.0001)                 8.122290115048837E+10,      /* I =858 */
(PID.TID 0000.0001)                 7.856766377623761E+10,      /* I =859 */
(PID.TID 0000.0001)                 7.607731167900534E+10,      /* I =860 */
(PID.TID 0000.0001)                 7.387277930931242E+10,      /* I =861 */
(PID.TID 0000.0001)                 7.207697049617757E+10,      /* I =862 */
(PID.TID 0000.0001)                 7.080359444504936E+10,      /* I =863 */
(PID.TID 0000.0001)                 7.014205907742783E+10,      /* I =864 */
(PID.TID 0000.0001)                 8.549360686473492E+10,      /* I =865 */
(PID.TID 0000.0001)                 8.584306032891338E+10,      /* I =866 */
(PID.TID 0000.0001)                 8.652588999621022E+10,      /* I =867 */
(PID.TID 0000.0001)                 8.751117576829997E+10,      /* I =868 */
(PID.TID 0000.0001)                 8.875538179479057E+10,      /* I =869 */
(PID.TID 0000.0001)                 9.020518786587576E+10,      /* I =870 */
(PID.TID 0000.0001)                 9.180052507543143E+10,      /* I =871 */
(PID.TID 0000.0001)                 9.347751054425339E+10,      /* I =872 */
(PID.TID 0000.0001)                 9.517111234598198E+10,      /* I =873 */
(PID.TID 0000.0001)                 9.681749461729144E+10,      /* I =874 */
(PID.TID 0000.0001)                 9.835606459235127E+10,      /* I =875 */
(PID.TID 0000.0001)                 9.973126714698372E+10,      /* I =876 */
(PID.TID 0000.0001)                 1.008941633474940E+11,      /* I =877 */
(PID.TID 0000.0001)                 1.018038055521548E+11,      /* I =878 */
(PID.TID 0000.0001)                 1.024283970246639E+11,      /* I =879 */
(PID.TID 0000.0001)     2 @  1.027462190489479E+11,             /* I =880:881 */
(PID.TID 0000.0001)                 1.024283970246639E+11,      /* I =882 */
(PID.TID 0000.0001)                 1.018038055521548E+11,      /* I =883 */
(PID.TID 0000.0001)                 1.008941633475211E+11,      /* I =884 */
(PID.TID 0000.0001)                 9.973126714696570E+10,      /* I =885 */
(PID.TID 0000.0001)                 9.835606459229723E+10,      /* I =886 */
(PID.TID 0000.0001)                 9.681749461729144E+10,      /* I =887 */
(PID.TID 0000.0001)                 9.517111234598198E+10,      /* I =888 */
(PID.TID 0000.0001)                 9.347751054428943E+10,      /* I =889 */
(PID.TID 0000.0001)                 9.180052507539539E+10,      /* I =890 */
(PID.TID 0000.0001)                 9.020518786587576E+10,      /* I =891 */
(PID.TID 0000.0001)                 8.875538179481760E+10,      /* I =892 */
(PID.TID 0000.0001)                 8.751117576832700E+10,      /* I =893 */
(PID.TID 0000.0001)                 8.652588999617418E+10,      /* I =894 */
(PID.TID 0000.0001)                 8.584306032892239E+10,      /* I =895 */
(PID.TID 0000.0001)                 8.549360686467184E+10,      /* I =896 */
(PID.TID 0000.0001)                 9.083293515008307E+10,      /* I =897 */
(PID.TID 0000.0001)                 9.110170898494536E+10,      /* I =898 */
(PID.TID 0000.0001)                 9.162886297688426E+10,      /* I =899 */
(PID.TID 0000.0001)                 9.239403136821951E+10,      /* I =900 */
(PID.TID 0000.0001)                 9.336769520564153E+10,      /* I =901 */
(PID.TID 0000.0001)                 9.451235404855287E+10,      /* I =902 */
(PID.TID 0000.0001)                 9.578399259392229E+10,      /* I =903 */
(PID.TID 0000.0001)                 9.713377776174072E+10,      /* I =904 */
(PID.TID 0000.0001)                 9.850992024629108E+10,      /* I =905 */
(PID.TID 0000.0001)                 9.985963523714983E+10,      /* I =906 */
(PID.TID 0000.0001)                 1.011311375396738E+11,      /* I =907 */
(PID.TID 0000.0001)                 1.022756055022041E+11,      /* I =908 */
(PID.TID 0000.0001)                 1.032490462723345E+11,      /* I =909 */
(PID.TID 0000.0001)                 1.040139933533592E+11,      /* I =910 */
(PID.TID 0000.0001)                 1.045409681097387E+11,      /* I =911 */
(PID.TID 0000.0001)     2 @  1.048096527455915E+11,             /* I =912:913 */
(PID.TID 0000.0001)                 1.045409681097387E+11,      /* I =914 */
(PID.TID 0000.0001)                 1.040139933533592E+11,      /* I =915 */
(PID.TID 0000.0001)                 1.032490462723345E+11,      /* I =916 */
(PID.TID 0000.0001)                 1.022756055022041E+11,      /* I =917 */
(PID.TID 0000.0001)                 1.011311375396738E+11,      /* I =918 */
(PID.TID 0000.0001)                 9.985963523714983E+10,      /* I =919 */
(PID.TID 0000.0001)                 9.850992024629108E+10,      /* I =920 */
(PID.TID 0000.0001)                 9.713377776174072E+10,      /* I =921 */
(PID.TID 0000.0001)                 9.578399259392229E+10,      /* I =922 */
(PID.TID 0000.0001)                 9.451235404855287E+10,      /* I =923 */
(PID.TID 0000.0001)                 9.336769520564153E+10,      /* I =924 */
(PID.TID 0000.0001)                 9.239403136821951E+10,      /* I =925 */
(PID.TID 0000.0001)                 9.162886297688426E+10,      /* I =926 */
(PID.TID 0000.0001)                 9.110170898494536E+10,      /* I =927 */
(PID.TID 0000.0001)                 9.083293515008307E+10,      /* I =928 */
(PID.TID 0000.0001)                 8.549360686467184E+10,      /* I =929 */
(PID.TID 0000.0001)                 8.584306032892239E+10,      /* I =930 */
(PID.TID 0000.0001)                 8.652588999617418E+10,      /* I =931 */
(PID.TID 0000.0001)                 8.751117576832700E+10,      /* I =932 */
(PID.TID 0000.0001)                 8.875538179481760E+10,      /* I =933 */
(PID.TID 0000.0001)                 9.020518786587576E+10,      /* I =934 */
(PID.TID 0000.0001)                 9.180052507539539E+10,      /* I =935 */
(PID.TID 0000.0001)                 9.347751054428943E+10,      /* I =936 */
(PID.TID 0000.0001)                 9.517111234598198E+10,      /* I =937 */
(PID.TID 0000.0001)                 9.681749461729144E+10,      /* I =938 */
(PID.TID 0000.0001)                 9.835606459229723E+10,      /* I =939 */
(PID.TID 0000.0001)                 9.973126714696570E+10,      /* I =940 */
(PID.TID 0000.0001)                 1.008941633475211E+11,      /* I =941 */
(PID.TID 0000.0001)                 1.018038055521548E+11,      /* I =942 */
(PID.TID 0000.0001)                 1.024283970246639E+11,      /* I =943 */
(PID.TID 0000.0001)     2 @  1.027462190489479E+11,             /* I =944:945 */
(PID.TID 0000.0001)                 1.024283970246639E+11,      /* I =946 */
(PID.TID 0000.0001)                 1.018038055521548E+11,      /* I =947 */
(PID.TID 0000.0001)                 1.008941633474940E+11,      /* I =948 */
(PID.TID 0000.0001)                 9.973126714698372E+10,      /* I =949 */
(PID.TID 0000.0001)                 9.835606459235127E+10,      /* I =950 */
(PID.TID 0000.0001)                 9.681749461729144E+10,      /* I =951 */
(PID.TID 0000.0001)                 9.517111234598198E+10,      /* I =952 */
(PID.TID 0000.0001)                 9.347751054425339E+10,      /* I =953 */
(PID.TID 0000.0001)                 9.180052507543143E+10,      /* I =954 */
(PID.TID 0000.0001)                 9.020518786587576E+10,      /* I =955 */
(PID.TID 0000.0001)                 8.875538179479057E+10,      /* I =956 */
(PID.TID 0000.0001)                 8.751117576829997E+10,      /* I =957 */
(PID.TID 0000.0001)                 8.652588999621022E+10,      /* I =958 */
(PID.TID 0000.0001)                 8.584306032891338E+10,      /* I =959 */
(PID.TID 0000.0001)                 8.549360686473492E+10,      /* I =960 */
(PID.TID 0000.0001)                 7.014205907742783E+10,      /* I =961 */
(PID.TID 0000.0001)                 7.080359444504936E+10,      /* I =962 */
(PID.TID 0000.0001)                 7.207697049617757E+10,      /* I =963 */
(PID.TID 0000.0001)                 7.387277930931242E+10,      /* I =964 */
(PID.TID 0000.0001)                 7.607731167900534E+10,      /* I =965 */
(PID.TID 0000.0001)                 7.856766377623761E+10,      /* I =966 */
(PID.TID 0000.0001)                 8.122290115048837E+10,      /* I =967 */
(PID.TID 0000.0001)                 8.393053257714168E+10,      /* I =968 */
(PID.TID 0000.0001)                 8.658933893111111E+10,      /* I =969 */
(PID.TID 0000.0001)                 8.911005636639276E+10,      /* I =970 */
(PID.TID 0000.0001)                 9.141512166177710E+10,      /* I =971 */
(PID.TID 0000.0001)                 9.343821140062714E+10,      /* I =972 */
(PID.TID 0000.0001)                 9.512391461453923E+10,      /* I =973 */
(PID.TID 0000.0001)                 9.642763033424841E+10,      /* I =974 */
(PID.TID 0000.0001)                 9.731565189661444E+10,      /* I =975 */
(PID.TID 0000.0001)                 9.776536132335065E+10,      /* I =976 */
(PID.TID 0000.0001)                 9.776536132332361E+10,      /* I =977 */
(PID.TID 0000.0001)                 9.731565189660542E+10,      /* I =978 */
(PID.TID 0000.0001)                 9.642763033423941E+10,      /* I =979 */
(PID.TID 0000.0001)                 9.512391461452121E+10,      /* I =980 */
(PID.TID 0000.0001)                 9.343821140059109E+10,      /* I =981 */
(PID.TID 0000.0001)                 9.141512166179512E+10,      /* I =982 */
(PID.TID 0000.0001)                 8.911005636635672E+10,      /* I =983 */
(PID.TID 0000.0001)                 8.658933893113814E+10,      /* I =984 */
(PID.TID 0000.0001)                 8.393053257718672E+10,      /* I =985 */
(PID.TID 0000.0001)                 8.122290115046133E+10,      /* I =986 */
(PID.TID 0000.0001)                 7.856766377620157E+10,      /* I =987 */
(PID.TID 0000.0001)                 7.607731167898732E+10,      /* I =988 */
(PID.TID 0000.0001)                 7.387277930931242E+10,      /* I =989 */
(PID.TID 0000.0001)                 7.207697049620459E+10,      /* I =990 */
(PID.TID 0000.0001)                 7.080359444504936E+10,      /* I =991 */
(PID.TID 0000.0001)                 7.014205907741882E+10,      /* I =992 */
(PID.TID 0000.0001)                 4.571243814190767E+10,      /* I =993 */
(PID.TID 0000.0001)                 4.747577840754108E+10,      /* I =994 */
(PID.TID 0000.0001)                 5.062996293675036E+10,      /* I =995 */
(PID.TID 0000.0001)                 5.467231580449774E+10,      /* I =996 */
(PID.TID 0000.0001)                 5.917213486169992E+10,      /* I =997 */
(PID.TID 0000.0001)                 6.382388519540565E+10,      /* I =998 */
(PID.TID 0000.0001)                 6.842319715282094E+10,      /* I =999 */
(PID.TID 0000.0001)                 7.283130776162505E+10,      /* I =*** */
(PID.TID 0000.0001)                 7.694890654164391E+10,      /* I =*** */
(PID.TID 0000.0001)                 8.070033400484334E+10,      /* I =*** */
(PID.TID 0000.0001)                 8.402489455586488E+10,      /* I =*** */
(PID.TID 0000.0001)                 8.687244923850627E+10,      /* I =*** */
(PID.TID 0000.0001)                 8.920144688865334E+10,      /* I =*** */
(PID.TID 0000.0001)                 9.097828507499170E+10,      /* I =*** */
(PID.TID 0000.0001)                 9.217733826644687E+10,      /* I =*** */
(PID.TID 0000.0001)                 9.278126467409492E+10,      /* I =*** */
(PID.TID 0000.0001)                 9.278126467408592E+10,      /* I =*** */
(PID.TID 0000.0001)                 9.217733826645589E+10,      /* I =*** */
(PID.TID 0000.0001)                 9.097828507498270E+10,      /* I =*** */
(PID.TID 0000.0001)                 8.920144688867136E+10,      /* I =*** */
(PID.TID 0000.0001)                 8.687244923847925E+10,      /* I =*** */
(PID.TID 0000.0001)                 8.402489455582884E+10,      /* I =*** */
(PID.TID 0000.0001)                 8.070033400481630E+10,      /* I =*** */
(PID.TID 0000.0001)                 7.694890654165292E+10,      /* I =*** */
(PID.TID 0000.0001)                 7.283130776157999E+10,      /* I =*** */
(PID.TID 0000.0001)                 6.842319715282995E+10,      /* I =*** */
(PID.TID 0000.0001)                 6.382388519537862E+10,      /* I =*** */
(PID.TID 0000.0001)                 5.917213486167289E+10,      /* I =*** */
(PID.TID 0000.0001)                 5.467231580448873E+10,      /* I =*** */
(PID.TID 0000.0001)                 5.062996293677739E+10,      /* I =*** */
(PID.TID 0000.0001)                 4.747577840755909E+10,      /* I =*** */
(PID.TID 0000.0001)                 4.571243814189866E+10,      /* I =*** */
(PID.TID 0000.0001)                 1.216690346714270E+10,      /* I =*** */
(PID.TID 0000.0001)                 2.390126200743558E+10,      /* I =*** */
(PID.TID 0000.0001)                 3.341968103208270E+10,      /* I =*** */
(PID.TID 0000.0001)                 4.168532893152940E+10,      /* I =*** */
(PID.TID 0000.0001)                 4.909074590409593E+10,      /* I =*** */
(PID.TID 0000.0001)                 5.581203765722643E+10,      /* I =*** */
(PID.TID 0000.0001)                 6.193257577506788E+10,      /* I =*** */
(PID.TID 0000.0001)                 6.748840226738273E+10,      /* I =*** */
(PID.TID 0000.0001)                 7.248875782324815E+10,      /* I =*** */
(PID.TID 0000.0001)                 7.692702995909871E+10,      /* I =*** */
(PID.TID 0000.0001)                 8.078743937057304E+10,      /* I =*** */
(PID.TID 0000.0001)                 8.404959656062837E+10,      /* I =*** */
(PID.TID 0000.0001)                 8.669186205742538E+10,      /* I =*** */
(PID.TID 0000.0001)                 8.869393350723613E+10,      /* I =*** */
(PID.TID 0000.0001)                 9.003884657168852E+10,      /* I =*** */
(PID.TID 0000.0001)     2 @  9.071447638299399E+10,             /* I =***:*** */
(PID.TID 0000.0001)                 9.003884657168852E+10,      /* I =*** */
(PID.TID 0000.0001)                 8.869393350723613E+10,      /* I =*** */
(PID.TID 0000.0001)                 8.669186205742538E+10,      /* I =*** */
(PID.TID 0000.0001)                 8.404959656062837E+10,      /* I =*** */
(PID.TID 0000.0001)                 8.078743937057304E+10,      /* I =*** */
(PID.TID 0000.0001)                 7.692702995909871E+10,      /* I =*** */
(PID.TID 0000.0001)                 7.248875782324815E+10,      /* I =*** */
(PID.TID 0000.0001)                 6.748840226738273E+10,      /* I =*** */
(PID.TID 0000.0001)                 6.193257577506788E+10,      /* I =*** */
(PID.TID 0000.0001)                 5.581203765722643E+10,      /* I =*** */
(PID.TID 0000.0001)                 4.909074590409593E+10,      /* I =*** */
(PID.TID 0000.0001)                 4.168532893152940E+10,      /* I =*** */
(PID.TID 0000.0001)                 3.341968103208270E+10,      /* I =*** */
(PID.TID 0000.0001)                 2.390126200743558E+10,      /* I =*** */
(PID.TID 0000.0001)                 1.216690346714270E+10,      /* I =*** */
(PID.TID 0000.0001)                 4.571243814189866E+10,      /* I =*** */
(PID.TID 0000.0001)                 4.747577840755909E+10,      /* I =*** */
(PID.TID 0000.0001)                 5.062996293677739E+10,      /* I =*** */
(PID.TID 0000.0001)                 5.467231580448873E+10,      /* I =*** */
(PID.TID 0000.0001)                 5.917213486167289E+10,      /* I =*** */
(PID.TID 0000.0001)                 6.382388519537862E+10,      /* I =*** */
(PID.TID 0000.0001)                 6.842319715282995E+10,      /* I =*** */
(PID.TID 0000.0001)                 7.283130776157999E+10,      /* I =*** */
(PID.TID 0000.0001)                 7.694890654165292E+10,      /* I =*** */
(PID.TID 0000.0001)                 8.070033400481630E+10,      /* I =*** */
(PID.TID 0000.0001)                 8.402489455582884E+10,      /* I =*** */
(PID.TID 0000.0001)                 8.687244923847925E+10,      /* I =*** */
(PID.TID 0000.0001)                 8.920144688867136E+10,      /* I =*** */
(PID.TID 0000.0001)                 9.097828507498270E+10,      /* I =*** */
(PID.TID 0000.0001)                 9.217733826645589E+10,      /* I =*** */
(PID.TID 0000.0001)                 9.278126467408592E+10,      /* I =*** */
(PID.TID 0000.0001)                 9.278126467409492E+10,      /* I =*** */
(PID.TID 0000.0001)                 9.217733826644687E+10,      /* I =*** */
(PID.TID 0000.0001)                 9.097828507499170E+10,      /* I =*** */
(PID.TID 0000.0001)                 8.920144688865334E+10,      /* I =*** */
(PID.TID 0000.0001)                 8.687244923850627E+10,      /* I =*** */
(PID.TID 0000.0001)                 8.402489455586488E+10,      /* I =*** */
(PID.TID 0000.0001)                 8.070033400484334E+10,      /* I =*** */
(PID.TID 0000.0001)                 7.694890654164391E+10,      /* I =*** */
(PID.TID 0000.0001)                 7.283130776162505E+10,      /* I =*** */
(PID.TID 0000.0001)                 6.842319715282094E+10,      /* I =*** */
(PID.TID 0000.0001)                 6.382388519540565E+10,      /* I =*** */
(PID.TID 0000.0001)                 5.917213486169992E+10,      /* I =*** */
(PID.TID 0000.0001)                 5.467231580449774E+10,      /* I =*** */
(PID.TID 0000.0001)                 5.062996293675036E+10,      /* I =*** */
(PID.TID 0000.0001)                 4.747577840754108E+10,      /* I =*** */
(PID.TID 0000.0001)                 4.571243814190767E+10,      /* I =*** */
(PID.TID 0000.0001)                 7.014205907741882E+10,      /* I =*** */
(PID.TID 0000.0001)                 7.080359444504936E+10,      /* I =*** */
(PID.TID 0000.0001)                 7.207697049620459E+10,      /* I =*** */
(PID.TID 0000.0001)                 7.387277930931242E+10,      /* I =*** */
(PID.TID 0000.0001)                 7.607731167898732E+10,      /* I =*** */
(PID.TID 0000.0001)                 7.856766377620157E+10,      /* I =*** */
(PID.TID 0000.0001)                 8.122290115046133E+10,      /* I =*** */
(PID.TID 0000.0001)                 8.393053257718672E+10,      /* I =*** */
(PID.TID 0000.0001)                 8.658933893113814E+10,      /* I =*** */
(PID.TID 0000.0001)                 8.911005636635672E+10,      /* I =*** */
(PID.TID 0000.0001)                 9.141512166179512E+10,      /* I =*** */
(PID.TID 0000.0001)                 9.343821140059109E+10,      /* I =*** */
(PID.TID 0000.0001)                 9.512391461452121E+10,      /* I =*** */
(PID.TID 0000.0001)                 9.642763033423941E+10,      /* I =*** */
(PID.TID 0000.0001)                 9.731565189660542E+10,      /* I =*** */
(PID.TID 0000.0001)                 9.776536132332361E+10,      /* I =*** */
(PID.TID 0000.0001)                 9.776536132335065E+10,      /* I =*** */
(PID.TID 0000.0001)                 9.731565189661444E+10,      /* I =*** */
(PID.TID 0000.0001)                 9.642763033424841E+10,      /* I =*** */
(PID.TID 0000.0001)                 9.512391461453923E+10,      /* I =*** */
(PID.TID 0000.0001)                 9.343821140062714E+10,      /* I =*** */
(PID.TID 0000.0001)                 9.141512166177710E+10,      /* I =*** */
(PID.TID 0000.0001)                 8.911005636639276E+10,      /* I =*** */
(PID.TID 0000.0001)                 8.658933893111111E+10,      /* I =*** */
(PID.TID 0000.0001)                 8.393053257714168E+10,      /* I =*** */
(PID.TID 0000.0001)                 8.122290115048837E+10,      /* I =*** */
(PID.TID 0000.0001)                 7.856766377623761E+10,      /* I =*** */
(PID.TID 0000.0001)                 7.607731167900534E+10,      /* I =*** */
(PID.TID 0000.0001)                 7.387277930931242E+10,      /* I =*** */
(PID.TID 0000.0001)                 7.207697049617757E+10,      /* I =*** */
(PID.TID 0000.0001)                 7.080359444504936E+10,      /* I =*** */
(PID.TID 0000.0001)                 7.014205907742783E+10,      /* I =*** */
(PID.TID 0000.0001)                 8.549360686473492E+10,      /* I =*** */
(PID.TID 0000.0001)                 8.584306032891338E+10,      /* I =*** */
(PID.TID 0000.0001)                 8.652588999621022E+10,      /* I =*** */
(PID.TID 0000.0001)                 8.751117576829997E+10,      /* I =*** */
(PID.TID 0000.0001)                 8.875538179479057E+10,      /* I =*** */
(PID.TID 0000.0001)                 9.020518786587576E+10,      /* I =*** */
(PID.TID 0000.0001)                 9.180052507543143E+10,      /* I =*** */
(PID.TID 0000.0001)                 9.347751054425339E+10,      /* I =*** */
(PID.TID 0000.0001)                 9.517111234598198E+10,      /* I =*** */
(PID.TID 0000.0001)                 9.681749461729144E+10,      /* I =*** */
(PID.TID 0000.0001)                 9.835606459235127E+10,      /* I =*** */
(PID.TID 0000.0001)                 9.973126714698372E+10,      /* I =*** */
(PID.TID 0000.0001)                 1.008941633474940E+11,      /* I =*** */
(PID.TID 0000.0001)                 1.018038055521548E+11,      /* I =*** */
(PID.TID 0000.0001)                 1.024283970246639E+11,      /* I =*** */
(PID.TID 0000.0001)     2 @  1.027462190489479E+11,             /* I =***:*** */
(PID.TID 0000.0001)                 1.024283970246639E+11,      /* I =*** */
(PID.TID 0000.0001)                 1.018038055521548E+11,      /* I =*** */
(PID.TID 0000.0001)                 1.008941633475211E+11,      /* I =*** */
(PID.TID 0000.0001)                 9.973126714696570E+10,      /* I =*** */
(PID.TID 0000.0001)                 9.835606459229723E+10,      /* I =*** */
(PID.TID 0000.0001)                 9.681749461729144E+10,      /* I =*** */
(PID.TID 0000.0001)                 9.517111234598198E+10,      /* I =*** */
(PID.TID 0000.0001)                 9.347751054428943E+10,      /* I =*** */
(PID.TID 0000.0001)                 9.180052507539539E+10,      /* I =*** */
(PID.TID 0000.0001)                 9.020518786587576E+10,      /* I =*** */
(PID.TID 0000.0001)                 8.875538179481760E+10,      /* I =*** */
(PID.TID 0000.0001)                 8.751117576832700E+10,      /* I =*** */
(PID.TID 0000.0001)                 8.652588999617418E+10,      /* I =*** */
(PID.TID 0000.0001)                 8.584306032892239E+10,      /* I =*** */
(PID.TID 0000.0001)                 8.549360686467184E+10,      /* I =*** */
(PID.TID 0000.0001)                 9.083293515008307E+10,      /* I =*** */
(PID.TID 0000.0001)                 9.110170898494536E+10,      /* I =*** */
(PID.TID 0000.0001)                 9.162886297688426E+10,      /* I =*** */
(PID.TID 0000.0001)                 9.239403136821951E+10,      /* I =*** */
(PID.TID 0000.0001)                 9.336769520564153E+10,      /* I =*** */
(PID.TID 0000.0001)                 9.451235404855287E+10,      /* I =*** */
(PID.TID 0000.0001)                 9.578399259392229E+10,      /* I =*** */
(PID.TID 0000.0001)                 9.713377776174072E+10,      /* I =*** */
(PID.TID 0000.0001)                 9.850992024629108E+10,      /* I =*** */
(PID.TID 0000.0001)                 9.985963523714983E+10,      /* I =*** */
(PID.TID 0000.0001)                 1.011311375396738E+11,      /* I =*** */
(PID.TID 0000.0001)                 1.022756055022041E+11,      /* I =*** */
(PID.TID 0000.0001)                 1.032490462723345E+11,      /* I =*** */
(PID.TID 0000.0001)                 1.040139933533592E+11,      /* I =*** */
(PID.TID 0000.0001)                 1.045409681097387E+11,      /* I =*** */
(PID.TID 0000.0001)     2 @  1.048096527455915E+11,             /* I =***:*** */
(PID.TID 0000.0001)                 1.045409681097387E+11,      /* I =*** */
(PID.TID 0000.0001)                 1.040139933533592E+11,      /* I =*** */
(PID.TID 0000.0001)                 1.032490462723345E+11,      /* I =*** */
(PID.TID 0000.0001)                 1.022756055022041E+11,      /* I =*** */
(PID.TID 0000.0001)                 1.011311375396738E+11,      /* I =*** */
(PID.TID 0000.0001)                 9.985963523714983E+10,      /* I =*** */
(PID.TID 0000.0001)                 9.850992024629108E+10,      /* I =*** */
(PID.TID 0000.0001)                 9.713377776174072E+10,      /* I =*** */
(PID.TID 0000.0001)                 9.578399259392229E+10,      /* I =*** */
(PID.TID 0000.0001)                 9.451235404855287E+10,      /* I =*** */
(PID.TID 0000.0001)                 9.336769520564153E+10,      /* I =*** */
(PID.TID 0000.0001)                 9.239403136821951E+10,      /* I =*** */
(PID.TID 0000.0001)                 9.162886297688426E+10,      /* I =*** */
(PID.TID 0000.0001)                 9.110170898494536E+10,      /* I =*** */
(PID.TID 0000.0001)                 9.083293515008307E+10,      /* I =*** */
(PID.TID 0000.0001)                 8.549360686467184E+10,      /* I =*** */
(PID.TID 0000.0001)                 8.584306032892239E+10,      /* I =*** */
(PID.TID 0000.0001)                 8.652588999617418E+10,      /* I =*** */
(PID.TID 0000.0001)                 8.751117576832700E+10,      /* I =*** */
(PID.TID 0000.0001)                 8.875538179481760E+10,      /* I =*** */
(PID.TID 0000.0001)                 9.020518786587576E+10,      /* I =*** */
(PID.TID 0000.0001)                 9.180052507539539E+10,      /* I =*** */
(PID.TID 0000.0001)                 9.347751054428943E+10,      /* I =*** */
(PID.TID 0000.0001)                 9.517111234598198E+10,      /* I =*** */
(PID.TID 0000.0001)                 9.681749461729144E+10,      /* I =*** */
(PID.TID 0000.0001)                 9.835606459229723E+10,      /* I =*** */
(PID.TID 0000.0001)                 9.973126714696570E+10,      /* I =*** */
(PID.TID 0000.0001)                 1.008941633475211E+11,      /* I =*** */
(PID.TID 0000.0001)                 1.018038055521548E+11,      /* I =*** */
(PID.TID 0000.0001)                 1.024283970246639E+11,      /* I =*** */
(PID.TID 0000.0001)     2 @  1.027462190489479E+11,             /* I =***:*** */
(PID.TID 0000.0001)                 1.024283970246639E+11,      /* I =*** */
(PID.TID 0000.0001)                 1.018038055521548E+11,      /* I =*** */
(PID.TID 0000.0001)                 1.008941633474940E+11,      /* I =*** */
(PID.TID 0000.0001)                 9.973126714698372E+10,      /* I =*** */
(PID.TID 0000.0001)                 9.835606459235127E+10,      /* I =*** */
(PID.TID 0000.0001)                 9.681749461729144E+10,      /* I =*** */
(PID.TID 0000.0001)                 9.517111234598198E+10,      /* I =*** */
(PID.TID 0000.0001)                 9.347751054425339E+10,      /* I =*** */
(PID.TID 0000.0001)                 9.180052507543143E+10,      /* I =*** */
(PID.TID 0000.0001)                 9.020518786587576E+10,      /* I =*** */
(PID.TID 0000.0001)                 8.875538179479057E+10,      /* I =*** */
(PID.TID 0000.0001)                 8.751117576829997E+10,      /* I =*** */
(PID.TID 0000.0001)                 8.652588999621022E+10,      /* I =*** */
(PID.TID 0000.0001)                 8.584306032891338E+10,      /* I =*** */
(PID.TID 0000.0001)                 8.549360686473492E+10,      /* I =*** */
(PID.TID 0000.0001)                 7.014205907742783E+10,      /* I =*** */
(PID.TID 0000.0001)                 7.080359444504936E+10,      /* I =*** */
(PID.TID 0000.0001)                 7.207697049617757E+10,      /* I =*** */
(PID.TID 0000.0001)                 7.387277930931242E+10,      /* I =*** */
(PID.TID 0000.0001)                 7.607731167900534E+10,      /* I =*** */
(PID.TID 0000.0001)                 7.856766377623761E+10,      /* I =*** */
(PID.TID 0000.0001)                 8.122290115048837E+10,      /* I =*** */
(PID.TID 0000.0001)                 8.393053257714168E+10,      /* I =*** */
(PID.TID 0000.0001)                 8.658933893111111E+10,      /* I =*** */
(PID.TID 0000.0001)                 8.911005636639276E+10,      /* I =*** */
(PID.TID 0000.0001)                 9.141512166177710E+10,      /* I =*** */
(PID.TID 0000.0001)                 9.343821140062714E+10,      /* I =*** */
(PID.TID 0000.0001)                 9.512391461453923E+10,      /* I =*** */
(PID.TID 0000.0001)                 9.642763033424841E+10,      /* I =*** */
(PID.TID 0000.0001)                 9.731565189661444E+10,      /* I =*** */
(PID.TID 0000.0001)                 9.776536132335065E+10,      /* I =*** */
(PID.TID 0000.0001)                 9.776536132332361E+10,      /* I =*** */
(PID.TID 0000.0001)                 9.731565189660542E+10,      /* I =*** */
(PID.TID 0000.0001)                 9.642763033423941E+10,      /* I =*** */
(PID.TID 0000.0001)                 9.512391461452121E+10,      /* I =*** */
(PID.TID 0000.0001)                 9.343821140059109E+10,      /* I =*** */
(PID.TID 0000.0001)                 9.141512166179512E+10,      /* I =*** */
(PID.TID 0000.0001)                 8.911005636635672E+10,      /* I =*** */
(PID.TID 0000.0001)                 8.658933893113814E+10,      /* I =*** */
(PID.TID 0000.0001)                 8.393053257718672E+10,      /* I =*** */
(PID.TID 0000.0001)                 8.122290115046133E+10,      /* I =*** */
(PID.TID 0000.0001)                 7.856766377620157E+10,      /* I =*** */
(PID.TID 0000.0001)                 7.607731167898732E+10,      /* I =*** */
(PID.TID 0000.0001)                 7.387277930931242E+10,      /* I =*** */
(PID.TID 0000.0001)                 7.207697049620459E+10,      /* I =*** */
(PID.TID 0000.0001)                 7.080359444504936E+10,      /* I =*** */
(PID.TID 0000.0001)                 7.014205907741882E+10,      /* I =*** */
(PID.TID 0000.0001)                 4.571243814190767E+10,      /* I =*** */
(PID.TID 0000.0001)                 4.747577840754108E+10,      /* I =*** */
(PID.TID 0000.0001)                 5.062996293675036E+10,      /* I =*** */
(PID.TID 0000.0001)                 5.467231580449774E+10,      /* I =*** */
(PID.TID 0000.0001)                 5.917213486169992E+10,      /* I =*** */
(PID.TID 0000.0001)                 6.382388519540565E+10,      /* I =*** */
(PID.TID 0000.0001)                 6.842319715282094E+10,      /* I =*** */
(PID.TID 0000.0001)                 7.283130776162505E+10,      /* I =*** */
(PID.TID 0000.0001)                 7.694890654164391E+10,      /* I =*** */
(PID.TID 0000.0001)                 8.070033400484334E+10,      /* I =*** */
(PID.TID 0000.0001)                 8.402489455586488E+10,      /* I =*** */
(PID.TID 0000.0001)                 8.687244923850627E+10,      /* I =*** */
(PID.TID 0000.0001)                 8.920144688865334E+10,      /* I =*** */
(PID.TID 0000.0001)                 9.097828507499170E+10,      /* I =*** */
(PID.TID 0000.0001)                 9.217733826644687E+10,      /* I =*** */
(PID.TID 0000.0001)                 9.278126467409492E+10,      /* I =*** */
(PID.TID 0000.0001)                 9.278126467408592E+10,      /* I =*** */
(PID.TID 0000.0001)                 9.217733826645589E+10,      /* I =*** */
(PID.TID 0000.0001)                 9.097828507498270E+10,      /* I =*** */
(PID.TID 0000.0001)                 8.920144688867136E+10,      /* I =*** */
(PID.TID 0000.0001)                 8.687244923847925E+10,      /* I =*** */
(PID.TID 0000.0001)                 8.402489455582884E+10,      /* I =*** */
(PID.TID 0000.0001)                 8.070033400481630E+10,      /* I =*** */
(PID.TID 0000.0001)                 7.694890654165292E+10,      /* I =*** */
(PID.TID 0000.0001)                 7.283130776157999E+10,      /* I =*** */
(PID.TID 0000.0001)                 6.842319715282995E+10,      /* I =*** */
(PID.TID 0000.0001)                 6.382388519537862E+10,      /* I =*** */
(PID.TID 0000.0001)                 5.917213486167289E+10,      /* I =*** */
(PID.TID 0000.0001)                 5.467231580448873E+10,      /* I =*** */
(PID.TID 0000.0001)                 5.062996293677739E+10,      /* I =*** */
(PID.TID 0000.0001)                 4.747577840755909E+10,      /* I =*** */
(PID.TID 0000.0001)                 4.571243814189866E+10,      /* I =*** */
(PID.TID 0000.0001)                 1.216690346714270E+10,      /* I =*** */
(PID.TID 0000.0001)                 2.390126200743558E+10,      /* I =*** */
(PID.TID 0000.0001)                 3.341968103208270E+10,      /* I =*** */
(PID.TID 0000.0001)                 4.168532893152940E+10,      /* I =*** */
(PID.TID 0000.0001)                 4.909074590409593E+10,      /* I =*** */
(PID.TID 0000.0001)                 5.581203765722643E+10,      /* I =*** */
(PID.TID 0000.0001)                 6.193257577506788E+10,      /* I =*** */
(PID.TID 0000.0001)                 6.748840226738273E+10,      /* I =*** */
(PID.TID 0000.0001)                 7.248875782324815E+10,      /* I =*** */
(PID.TID 0000.0001)                 7.692702995909871E+10,      /* I =*** */
(PID.TID 0000.0001)                 8.078743937057304E+10,      /* I =*** */
(PID.TID 0000.0001)                 8.404959656062837E+10,      /* I =*** */
(PID.TID 0000.0001)                 8.669186205742538E+10,      /* I =*** */
(PID.TID 0000.0001)                 8.869393350723613E+10,      /* I =*** */
(PID.TID 0000.0001)                 9.003884657168852E+10,      /* I =*** */
(PID.TID 0000.0001)     2 @  9.071447638299399E+10,             /* I =***:*** */
(PID.TID 0000.0001)                 9.003884657168852E+10,      /* I =*** */
(PID.TID 0000.0001)                 8.869393350723613E+10,      /* I =*** */
(PID.TID 0000.0001)                 8.669186205742538E+10,      /* I =*** */
(PID.TID 0000.0001)                 8.404959656062837E+10,      /* I =*** */
(PID.TID 0000.0001)                 8.078743937057304E+10,      /* I =*** */
(PID.TID 0000.0001)                 7.692702995909871E+10,      /* I =*** */
(PID.TID 0000.0001)                 7.248875782324815E+10,      /* I =*** */
(PID.TID 0000.0001)                 6.748840226738273E+10,      /* I =*** */
(PID.TID 0000.0001)                 6.193257577506788E+10,      /* I =*** */
(PID.TID 0000.0001)                 5.581203765722643E+10,      /* I =*** */
(PID.TID 0000.0001)                 4.909074590409593E+10,      /* I =*** */
(PID.TID 0000.0001)                 4.168532893152940E+10,      /* I =*** */
(PID.TID 0000.0001)                 3.341968103208270E+10,      /* I =*** */
(PID.TID 0000.0001)                 2.390126200743558E+10,      /* I =*** */
(PID.TID 0000.0001)                 1.216690346714270E+10,      /* I =*** */
(PID.TID 0000.0001)                 4.571243814189866E+10,      /* I =*** */
(PID.TID 0000.0001)                 4.747577840755909E+10,      /* I =*** */
(PID.TID 0000.0001)                 5.062996293677739E+10,      /* I =*** */
(PID.TID 0000.0001)                 5.467231580448873E+10,      /* I =*** */
(PID.TID 0000.0001)                 5.917213486167289E+10,      /* I =*** */
(PID.TID 0000.0001)                 6.382388519537862E+10,      /* I =*** */
(PID.TID 0000.0001)                 6.842319715282995E+10,      /* I =*** */
(PID.TID 0000.0001)                 7.283130776157999E+10,      /* I =*** */
(PID.TID 0000.0001)                 7.694890654165292E+10,      /* I =*** */
(PID.TID 0000.0001)                 8.070033400481630E+10,      /* I =*** */
(PID.TID 0000.0001)                 8.402489455582884E+10,      /* I =*** */
(PID.TID 0000.0001)                 8.687244923847925E+10,      /* I =*** */
(PID.TID 0000.0001)                 8.920144688867136E+10,      /* I =*** */
(PID.TID 0000.0001)                 9.097828507498270E+10,      /* I =*** */
(PID.TID 0000.0001)                 9.217733826645589E+10,      /* I =*** */
(PID.TID 0000.0001)                 9.278126467408592E+10,      /* I =*** */
(PID.TID 0000.0001)                 9.278126467409492E+10,      /* I =*** */
(PID.TID 0000.0001)                 9.217733826644687E+10,      /* I =*** */
(PID.TID 0000.0001)                 9.097828507499170E+10,      /* I =*** */
(PID.TID 0000.0001)                 8.920144688865334E+10,      /* I =*** */
(PID.TID 0000.0001)                 8.687244923850627E+10,      /* I =*** */
(PID.TID 0000.0001)                 8.402489455586488E+10,      /* I =*** */
(PID.TID 0000.0001)                 8.070033400484334E+10,      /* I =*** */
(PID.TID 0000.0001)                 7.694890654164391E+10,      /* I =*** */
(PID.TID 0000.0001)                 7.283130776162505E+10,      /* I =*** */
(PID.TID 0000.0001)                 6.842319715282094E+10,      /* I =*** */
(PID.TID 0000.0001)                 6.382388519540565E+10,      /* I =*** */
(PID.TID 0000.0001)                 5.917213486169992E+10,      /* I =*** */
(PID.TID 0000.0001)                 5.467231580449774E+10,      /* I =*** */
(PID.TID 0000.0001)                 5.062996293675036E+10,      /* I =*** */
(PID.TID 0000.0001)                 4.747577840754108E+10,      /* I =*** */
(PID.TID 0000.0001)                 4.571243814190767E+10,      /* I =*** */
(PID.TID 0000.0001)                 7.014205907741882E+10,      /* I =*** */
(PID.TID 0000.0001)                 7.080359444504936E+10,      /* I =*** */
(PID.TID 0000.0001)                 7.207697049620459E+10,      /* I =*** */
(PID.TID 0000.0001)                 7.387277930931242E+10,      /* I =*** */
(PID.TID 0000.0001)                 7.607731167898732E+10,      /* I =*** */
(PID.TID 0000.0001)                 7.856766377620157E+10,      /* I =*** */
(PID.TID 0000.0001)                 8.122290115046133E+10,      /* I =*** */
(PID.TID 0000.0001)                 8.393053257718672E+10,      /* I =*** */
(PID.TID 0000.0001)                 8.658933893113814E+10,      /* I =*** */
(PID.TID 0000.0001)                 8.911005636635672E+10,      /* I =*** */
(PID.TID 0000.0001)                 9.141512166179512E+10,      /* I =*** */
(PID.TID 0000.0001)                 9.343821140059109E+10,      /* I =*** */
(PID.TID 0000.0001)                 9.512391461452121E+10,      /* I =*** */
(PID.TID 0000.0001)                 9.642763033423941E+10,      /* I =*** */
(PID.TID 0000.0001)                 9.731565189660542E+10,      /* I =*** */
(PID.TID 0000.0001)                 9.776536132332361E+10,      /* I =*** */
(PID.TID 0000.0001)                 9.776536132335065E+10,      /* I =*** */
(PID.TID 0000.0001)                 9.731565189661444E+10,      /* I =*** */
(PID.TID 0000.0001)                 9.642763033424841E+10,      /* I =*** */
(PID.TID 0000.0001)                 9.512391461453923E+10,      /* I =*** */
(PID.TID 0000.0001)                 9.343821140062714E+10,      /* I =*** */
(PID.TID 0000.0001)                 9.141512166177710E+10,      /* I =*** */
(PID.TID 0000.0001)                 8.911005636639276E+10,      /* I =*** */
(PID.TID 0000.0001)                 8.658933893111111E+10,      /* I =*** */
(PID.TID 0000.0001)                 8.393053257714168E+10,      /* I =*** */
(PID.TID 0000.0001)                 8.122290115048837E+10,      /* I =*** */
(PID.TID 0000.0001)                 7.856766377623761E+10,      /* I =*** */
(PID.TID 0000.0001)                 7.607731167900534E+10,      /* I =*** */
(PID.TID 0000.0001)                 7.387277930931242E+10,      /* I =*** */
(PID.TID 0000.0001)                 7.207697049617757E+10,      /* I =*** */
(PID.TID 0000.0001)                 7.080359444504936E+10,      /* I =*** */
(PID.TID 0000.0001)                 7.014205907742783E+10,      /* I =*** */
(PID.TID 0000.0001)                 8.549360686473492E+10,      /* I =*** */
(PID.TID 0000.0001)                 8.584306032891338E+10,      /* I =*** */
(PID.TID 0000.0001)                 8.652588999621022E+10,      /* I =*** */
(PID.TID 0000.0001)                 8.751117576829997E+10,      /* I =*** */
(PID.TID 0000.0001)                 8.875538179479057E+10,      /* I =*** */
(PID.TID 0000.0001)                 9.020518786587576E+10,      /* I =*** */
(PID.TID 0000.0001)                 9.180052507543143E+10,      /* I =*** */
(PID.TID 0000.0001)                 9.347751054425339E+10,      /* I =*** */
(PID.TID 0000.0001)                 9.517111234598198E+10,      /* I =*** */
(PID.TID 0000.0001)                 9.681749461729144E+10,      /* I =*** */
(PID.TID 0000.0001)                 9.835606459235127E+10,      /* I =*** */
(PID.TID 0000.0001)                 9.973126714698372E+10,      /* I =*** */
(PID.TID 0000.0001)                 1.008941633474940E+11,      /* I =*** */
(PID.TID 0000.0001)                 1.018038055521548E+11,      /* I =*** */
(PID.TID 0000.0001)                 1.024283970246639E+11,      /* I =*** */
(PID.TID 0000.0001)     2 @  1.027462190489479E+11,             /* I =***:*** */
(PID.TID 0000.0001)                 1.024283970246639E+11,      /* I =*** */
(PID.TID 0000.0001)                 1.018038055521548E+11,      /* I =*** */
(PID.TID 0000.0001)                 1.008941633475211E+11,      /* I =*** */
(PID.TID 0000.0001)                 9.973126714696570E+10,      /* I =*** */
(PID.TID 0000.0001)                 9.835606459229723E+10,      /* I =*** */
(PID.TID 0000.0001)                 9.681749461729144E+10,      /* I =*** */
(PID.TID 0000.0001)                 9.517111234598198E+10,      /* I =*** */
(PID.TID 0000.0001)                 9.347751054428943E+10,      /* I =*** */
(PID.TID 0000.0001)                 9.180052507539539E+10,      /* I =*** */
(PID.TID 0000.0001)                 9.020518786587576E+10,      /* I =*** */
(PID.TID 0000.0001)                 8.875538179481760E+10,      /* I =*** */
(PID.TID 0000.0001)                 8.751117576832700E+10,      /* I =*** */
(PID.TID 0000.0001)                 8.652588999617418E+10,      /* I =*** */
(PID.TID 0000.0001)                 8.584306032892239E+10,      /* I =*** */
(PID.TID 0000.0001)                 8.549360686467184E+10,      /* I =*** */
(PID.TID 0000.0001)                 9.083293515008307E+10,      /* I =*** */
(PID.TID 0000.0001)                 9.110170898494536E+10,      /* I =*** */
(PID.TID 0000.0001)                 9.162886297688426E+10,      /* I =*** */
(PID.TID 0000.0001)                 9.239403136821951E+10,      /* I =*** */
(PID.TID 0000.0001)                 9.336769520564153E+10,      /* I =*** */
(PID.TID 0000.0001)                 9.451235404855287E+10,      /* I =*** */
(PID.TID 0000.0001)                 9.578399259392229E+10,      /* I =*** */
(PID.TID 0000.0001)                 9.713377776174072E+10,      /* I =*** */
(PID.TID 0000.0001)                 9.850992024629108E+10,      /* I =*** */
(PID.TID 0000.0001)                 9.985963523714983E+10,      /* I =*** */
(PID.TID 0000.0001)                 1.011311375396738E+11,      /* I =*** */
(PID.TID 0000.0001)                 1.022756055022041E+11,      /* I =*** */
(PID.TID 0000.0001)                 1.032490462723345E+11,      /* I =*** */
(PID.TID 0000.0001)                 1.040139933533592E+11,      /* I =*** */
(PID.TID 0000.0001)                 1.045409681097387E+11,      /* I =*** */
(PID.TID 0000.0001)     2 @  1.048096527455915E+11,             /* I =***:*** */
(PID.TID 0000.0001)                 1.045409681097387E+11,      /* I =*** */
(PID.TID 0000.0001)                 1.040139933533592E+11,      /* I =*** */
(PID.TID 0000.0001)                 1.032490462723345E+11,      /* I =*** */
(PID.TID 0000.0001)                 1.022756055022041E+11,      /* I =*** */
(PID.TID 0000.0001)                 1.011311375396738E+11,      /* I =*** */
(PID.TID 0000.0001)                 9.985963523714983E+10,      /* I =*** */
(PID.TID 0000.0001)                 9.850992024629108E+10,      /* I =*** */
(PID.TID 0000.0001)                 9.713377776174072E+10,      /* I =*** */
(PID.TID 0000.0001)                 9.578399259392229E+10,      /* I =*** */
(PID.TID 0000.0001)                 9.451235404855287E+10,      /* I =*** */
(PID.TID 0000.0001)                 9.336769520564153E+10,      /* I =*** */
(PID.TID 0000.0001)                 9.239403136821951E+10,      /* I =*** */
(PID.TID 0000.0001)                 9.162886297688426E+10,      /* I =*** */
(PID.TID 0000.0001)                 9.110170898494536E+10,      /* I =*** */
(PID.TID 0000.0001)                 9.083293515008307E+10,      /* I =*** */
(PID.TID 0000.0001)                 8.549360686467184E+10,      /* I =*** */
(PID.TID 0000.0001)                 8.584306032892239E+10,      /* I =*** */
(PID.TID 0000.0001)                 8.652588999617418E+10,      /* I =*** */
(PID.TID 0000.0001)                 8.751117576832700E+10,      /* I =*** */
(PID.TID 0000.0001)                 8.875538179481760E+10,      /* I =*** */
(PID.TID 0000.0001)                 9.020518786587576E+10,      /* I =*** */
(PID.TID 0000.0001)                 9.180052507539539E+10,      /* I =*** */
(PID.TID 0000.0001)                 9.347751054428943E+10,      /* I =*** */
(PID.TID 0000.0001)                 9.517111234598198E+10,      /* I =*** */
(PID.TID 0000.0001)                 9.681749461729144E+10,      /* I =*** */
(PID.TID 0000.0001)                 9.835606459229723E+10,      /* I =*** */
(PID.TID 0000.0001)                 9.973126714696570E+10,      /* I =*** */
(PID.TID 0000.0001)                 1.008941633475211E+11,      /* I =*** */
(PID.TID 0000.0001)                 1.018038055521548E+11,      /* I =*** */
(PID.TID 0000.0001)                 1.024283970246639E+11,      /* I =*** */
(PID.TID 0000.0001)     2 @  1.027462190489479E+11,             /* I =***:*** */
(PID.TID 0000.0001)                 1.024283970246639E+11,      /* I =*** */
(PID.TID 0000.0001)                 1.018038055521548E+11,      /* I =*** */
(PID.TID 0000.0001)                 1.008941633474940E+11,      /* I =*** */
(PID.TID 0000.0001)                 9.973126714698372E+10,      /* I =*** */
(PID.TID 0000.0001)                 9.835606459235127E+10,      /* I =*** */
(PID.TID 0000.0001)                 9.681749461729144E+10,      /* I =*** */
(PID.TID 0000.0001)                 9.517111234598198E+10,      /* I =*** */
(PID.TID 0000.0001)                 9.347751054425339E+10,      /* I =*** */
(PID.TID 0000.0001)                 9.180052507543143E+10,      /* I =*** */
(PID.TID 0000.0001)                 9.020518786587576E+10,      /* I =*** */
(PID.TID 0000.0001)                 8.875538179479057E+10,      /* I =*** */
(PID.TID 0000.0001)                 8.751117576829997E+10,      /* I =*** */
(PID.TID 0000.0001)                 8.652588999621022E+10,      /* I =*** */
(PID.TID 0000.0001)                 8.584306032891338E+10,      /* I =*** */
(PID.TID 0000.0001)                 8.549360686473492E+10,      /* I =*** */
(PID.TID 0000.0001)                 7.014205907742783E+10,      /* I =*** */
(PID.TID 0000.0001)                 7.080359444504936E+10,      /* I =*** */
(PID.TID 0000.0001)                 7.207697049617757E+10,      /* I =*** */
(PID.TID 0000.0001)                 7.387277930931242E+10,      /* I =*** */
(PID.TID 0000.0001)                 7.607731167900534E+10,      /* I =*** */
(PID.TID 0000.0001)                 7.856766377623761E+10,      /* I =*** */
(PID.TID 0000.0001)                 8.122290115048837E+10,      /* I =*** */
(PID.TID 0000.0001)                 8.393053257714168E+10,      /* I =*** */
(PID.TID 0000.0001)                 8.658933893111111E+10,      /* I =*** */
(PID.TID 0000.0001)                 8.911005636639276E+10,      /* I =*** */
(PID.TID 0000.0001)                 9.141512166177710E+10,      /* I =*** */
(PID.TID 0000.0001)                 9.343821140062714E+10,      /* I =*** */
(PID.TID 0000.0001)                 9.512391461453923E+10,      /* I =*** */
(PID.TID 0000.0001)                 9.642763033424841E+10,      /* I =*** */
(PID.TID 0000.0001)                 9.731565189661444E+10,      /* I =*** */
(PID.TID 0000.0001)                 9.776536132335065E+10,      /* I =*** */
(PID.TID 0000.0001)                 9.776536132332361E+10,      /* I =*** */
(PID.TID 0000.0001)                 9.731565189660542E+10,      /* I =*** */
(PID.TID 0000.0001)                 9.642763033423941E+10,      /* I =*** */
(PID.TID 0000.0001)                 9.512391461452121E+10,      /* I =*** */
(PID.TID 0000.0001)                 9.343821140059109E+10,      /* I =*** */
(PID.TID 0000.0001)                 9.141512166179512E+10,      /* I =*** */
(PID.TID 0000.0001)                 8.911005636635672E+10,      /* I =*** */
(PID.TID 0000.0001)                 8.658933893113814E+10,      /* I =*** */
(PID.TID 0000.0001)                 8.393053257718672E+10,      /* I =*** */
(PID.TID 0000.0001)                 8.122290115046133E+10,      /* I =*** */
(PID.TID 0000.0001)                 7.856766377620157E+10,      /* I =*** */
(PID.TID 0000.0001)                 7.607731167898732E+10,      /* I =*** */
(PID.TID 0000.0001)                 7.387277930931242E+10,      /* I =*** */
(PID.TID 0000.0001)                 7.207697049620459E+10,      /* I =*** */
(PID.TID 0000.0001)                 7.080359444504936E+10,      /* I =*** */
(PID.TID 0000.0001)                 7.014205907741882E+10,      /* I =*** */
(PID.TID 0000.0001)                 4.571243814190767E+10,      /* I =*** */
(PID.TID 0000.0001)                 4.747577840754108E+10,      /* I =*** */
(PID.TID 0000.0001)                 5.062996293675036E+10,      /* I =*** */
(PID.TID 0000.0001)                 5.467231580449774E+10,      /* I =*** */
(PID.TID 0000.0001)                 5.917213486169992E+10,      /* I =*** */
(PID.TID 0000.0001)                 6.382388519540565E+10,      /* I =*** */
(PID.TID 0000.0001)                 6.842319715282094E+10,      /* I =*** */
(PID.TID 0000.0001)                 7.283130776162505E+10,      /* I =*** */
(PID.TID 0000.0001)                 7.694890654164391E+10,      /* I =*** */
(PID.TID 0000.0001)                 8.070033400484334E+10,      /* I =*** */
(PID.TID 0000.0001)                 8.402489455586488E+10,      /* I =*** */
(PID.TID 0000.0001)                 8.687244923850627E+10,      /* I =*** */
(PID.TID 0000.0001)                 8.920144688865334E+10,      /* I =*** */
(PID.TID 0000.0001)                 9.097828507499170E+10,      /* I =*** */
(PID.TID 0000.0001)                 9.217733826644687E+10,      /* I =*** */
(PID.TID 0000.0001)                 9.278126467409492E+10,      /* I =*** */
(PID.TID 0000.0001)                 9.278126467408592E+10,      /* I =*** */
(PID.TID 0000.0001)                 9.217733826645589E+10,      /* I =*** */
(PID.TID 0000.0001)                 9.097828507498270E+10,      /* I =*** */
(PID.TID 0000.0001)                 8.920144688867136E+10,      /* I =*** */
(PID.TID 0000.0001)                 8.687244923847925E+10,      /* I =*** */
(PID.TID 0000.0001)                 8.402489455582884E+10,      /* I =*** */
(PID.TID 0000.0001)                 8.070033400481630E+10,      /* I =*** */
(PID.TID 0000.0001)                 7.694890654165292E+10,      /* I =*** */
(PID.TID 0000.0001)                 7.283130776157999E+10,      /* I =*** */
(PID.TID 0000.0001)                 6.842319715282995E+10,      /* I =*** */
(PID.TID 0000.0001)                 6.382388519537862E+10,      /* I =*** */
(PID.TID 0000.0001)                 5.917213486167289E+10,      /* I =*** */
(PID.TID 0000.0001)                 5.467231580448873E+10,      /* I =*** */
(PID.TID 0000.0001)                 5.062996293677739E+10,      /* I =*** */
(PID.TID 0000.0001)                 4.747577840755909E+10,      /* I =*** */
(PID.TID 0000.0001)                 4.571243814189866E+10       /* I =*** */
(PID.TID 0000.0001)     ;
(PID.TID 0000.0001) rAs =  /* rAs(1,:,1,:) ( m - cartesian, degrees - spherical ) */
(PID.TID 0000.0001)                 1.216690346714270E+10,      /* J =  1 */
(PID.TID 0000.0001)                 1.974052138506315E+10,      /* J =  2 */
(PID.TID 0000.0001)                 2.943712825252015E+10,      /* J =  3 */
(PID.TID 0000.0001)                 3.801790263324359E+10       /* J =  4 */
(PID.TID 0000.0001)     ;
(PID.TID 0000.0001) 
(PID.TID 0000.0001)  MDSREADFIELD: opening global file: pickup.0000072000
(PID.TID 0000.0001)  MDSREADFIELD: opening global file: pickup.0000072000
(PID.TID 0000.0001)  MDSREADFIELD: opening global file: pickup.0000072000
(PID.TID 0000.0001)  MDSREADFIELD: opening global file: pickup.0000072000
(PID.TID 0000.0001)  MDSREADFIELD: opening global file: pickup.0000072000
(PID.TID 0000.0001)  MDSREADFIELD: opening global file: pickup.0000072000
(PID.TID 0000.0001)  MDSREADFIELD: opening global file: pickup.0000072000
(PID.TID 0000.0001)  MDSREADFIELD: opening global file: pickup.0000072000
(PID.TID 0000.0001)  MDSREADFIELD: opening global file: pickup.0000072000
(PID.TID 0000.0001)  MDSREADFIELD: opening global file: pickup.0000072000
(PID.TID 0000.0001)  MDSREADFIELD: opening global file: pickup.0000072000
(PID.TID 0000.0001)  MDSREADFIELD: opening global file: pickup.0000072000
(PID.TID 0000.0001)  MDSREADFIELD: opening global file: pickup.0000072000
(PID.TID 0000.0001)  MDSREADFIELD: opening global file: pickup.0000072000
(PID.TID 0000.0001)  MDSREADFIELD: opening global file: trenberth_taux.bin
(PID.TID 0000.0001)  MDSREADFIELD: opening global file: trenberth_tauy.bin
(PID.TID 0000.0001)  MDSREADFIELD: opening global file: shiQnet_cs32.bin
(PID.TID 0000.0001)  MDSREADFIELD: opening global file: shiEmPR_cs32.bin
(PID.TID 0000.0001)  MDSREADFIELD: opening global file: lev_surfT_cs_12m.bin
(PID.TID 0000.0001)  MDSREADFIELD: opening global file: lev_surfS_cs_12m.bin
(PID.TID 0000.0001) // =======================================================
(PID.TID 0000.0001) // Model current state
(PID.TID 0000.0001) // =======================================================
(PID.TID 0000.0001) 
(PID.TID 0000.0001) // =======================================================
(PID.TID 0000.0001) // Begin MONITOR dynamic field statistics
(PID.TID 0000.0001) // =======================================================
(PID.TID 0000.0001) %MON time_tsnumber                =                 72000
(PID.TID 0000.0001) %MON time_secondsf                =   6.2208000000000E+09
(PID.TID 0000.0001) %MON dynstat_eta_max              =   9.2031710416644E-01
(PID.TID 0000.0001) %MON dynstat_eta_min              =  -1.6158898521137E+00
(PID.TID 0000.0001) %MON dynstat_eta_mean             =   5.1469249012464E-13
(PID.TID 0000.0001) %MON dynstat_eta_sd               =   5.9847717066274E-01
(PID.TID 0000.0001) %MON dynstat_eta_del2             =   1.1251605767407E-02
(PID.TID 0000.0001) %MON dynstat_uvel_max             =   1.8517049457442E-01
(PID.TID 0000.0001) %MON dynstat_uvel_min             =  -2.8835551845614E-01
(PID.TID 0000.0001) %MON dynstat_uvel_mean            =  -4.9175745523437E-04
(PID.TID 0000.0001) %MON dynstat_uvel_sd              =   1.2027956592756E-02
(PID.TID 0000.0001) %MON dynstat_uvel_del2            =   1.5709654569602E-03
(PID.TID 0000.0001) %MON dynstat_vvel_max             =   1.7299533857874E-01
(PID.TID 0000.0001) %MON dynstat_vvel_min             =  -2.2520988227009E-01
(PID.TID 0000.0001) %MON dynstat_vvel_mean            =  -4.0634102594900E-04
(PID.TID 0000.0001) %MON dynstat_vvel_sd              =   1.2644734760550E-02
(PID.TID 0000.0001) %MON dynstat_vvel_del2            =   1.5971822645558E-03
(PID.TID 0000.0001) %MON dynstat_wvel_max             =   1.0345009107981E-04
(PID.TID 0000.0001) %MON dynstat_wvel_min             =  -2.0499843500452E-04
(PID.TID 0000.0001) %MON dynstat_wvel_mean            =   1.3526398554385E-10
(PID.TID 0000.0001) %MON dynstat_wvel_sd              =   3.9264301334608E-06
(PID.TID 0000.0001) %MON dynstat_wvel_del2            =   8.6584884665117E-07
(PID.TID 0000.0001) %MON dynstat_theta_max            =   3.0924013283713E+01
(PID.TID 0000.0001) %MON dynstat_theta_min            =  -1.9000000000000E+00
(PID.TID 0000.0001) %MON dynstat_theta_mean           =   3.9277645204241E+00
(PID.TID 0000.0001) %MON dynstat_theta_sd             =   4.5737217792203E+00
(PID.TID 0000.0001) %MON dynstat_theta_del2           =   8.7882177717031E-02
(PID.TID 0000.0001) %MON dynstat_salt_max             =   4.1446610064801E+01
(PID.TID 0000.0001) %MON dynstat_salt_min             =   1.8388095152689E+01
(PID.TID 0000.0001) %MON dynstat_salt_mean            =   3.4775231438108E+01
(PID.TID 0000.0001) %MON dynstat_salt_sd              =   5.3478918588473E-01
(PID.TID 0000.0001) %MON dynstat_salt_del2            =   1.8920977928815E-02
(PID.TID 0000.0001) %MON advcfl_uvel_max              =   8.1783094759596E-02
(PID.TID 0000.0001) %MON advcfl_vvel_max              =   7.5406230891088E-02
(PID.TID 0000.0001) %MON advcfl_wvel_max              =   6.6837225601475E-02
(PID.TID 0000.0001) %MON advcfl_W_hf_max              =   1.2196726726775E-01
(PID.TID 0000.0001) %MON pe_b_mean                    =   4.7715518783330E-04
(PID.TID 0000.0001) %MON ke_max                       =   4.0740789917671E-02
(PID.TID 0000.0001) %MON ke_mean                      =   1.4082933075705E-04
(PID.TID 0000.0001) %MON ke_vol                       =   1.3398024453628E+18
(PID.TID 0000.0001) %MON vort_r_min                   =  -1.1842642992323E-06
(PID.TID 0000.0001) %MON vort_r_max                   =   1.2117641406288E-06
(PID.TID 0000.0001) %MON vort_a_mean                  =  -2.0493733748263E-05
(PID.TID 0000.0001) %MON vort_a_sd                    =   7.5053946671692E-05
(PID.TID 0000.0001) %MON vort_p_mean                  =  -2.4715564517845E-05
(PID.TID 0000.0001) %MON vort_p_sd                    =   1.2775775264579E-04
(PID.TID 0000.0001) %MON surfExpan_theta_mean         =   4.8255934839135E-08
(PID.TID 0000.0001) %MON surfExpan_salt_mean          =   1.4770293622123E-08
(PID.TID 0000.0001) // =======================================================
(PID.TID 0000.0001) // End MONITOR dynamic field statistics
(PID.TID 0000.0001) // =======================================================
 S/R EXTERNAL_FIELDS_LOAD: Reading new data  6.2208E+09 72000
(PID.TID 0000.0001)  MDSREADFIELD: opening global file: trenberth_taux.bin
(PID.TID 0000.0001)  MDSREADFIELD: opening global file: trenberth_taux.bin
(PID.TID 0000.0001)  MDSREADFIELD: opening global file: trenberth_tauy.bin
(PID.TID 0000.0001)  MDSREADFIELD: opening global file: trenberth_tauy.bin
(PID.TID 0000.0001)  MDSREADFIELD: opening global file: shiQnet_cs32.bin
(PID.TID 0000.0001)  MDSREADFIELD: opening global file: shiQnet_cs32.bin
(PID.TID 0000.0001)  MDSREADFIELD: opening global file: shiEmPR_cs32.bin
(PID.TID 0000.0001)  MDSREADFIELD: opening global file: shiEmPR_cs32.bin
(PID.TID 0000.0001)  MDSREADFIELD: opening global file: lev_surfT_cs_12m.bin
(PID.TID 0000.0001)  MDSREADFIELD: opening global file: lev_surfT_cs_12m.bin
(PID.TID 0000.0001)  MDSREADFIELD: opening global file: lev_surfS_cs_12m.bin
(PID.TID 0000.0001)  MDSREADFIELD: opening global file: lev_surfS_cs_12m.bin
 cg2d: Sum(rhs),rhsMax =  -3.46081829860623E-10  4.25849579503662E+00
(PID.TID 0000.0001)                    cg2d_init_res =    1.60088401216965E-01
(PID.TID 0000.0001)                       cg2d_iters =    62
(PID.TID 0000.0001)                         cg2d_res =    4.67954269365475E-07
(PID.TID 0000.0001) // =======================================================
(PID.TID 0000.0001) // Begin MONITOR dynamic field statistics
(PID.TID 0000.0001) // =======================================================
(PID.TID 0000.0001) %MON time_tsnumber                =                 72001
(PID.TID 0000.0001) %MON time_secondsf                =   6.2208864000000E+09
(PID.TID 0000.0001) %MON dynstat_eta_max              =   9.1862193297979E-01
(PID.TID 0000.0001) %MON dynstat_eta_min              =  -1.6154084795689E+00
(PID.TID 0000.0001) %MON dynstat_eta_mean             =   5.1483421181731E-13
(PID.TID 0000.0001) %MON dynstat_eta_sd               =   5.9837583412049E-01
(PID.TID 0000.0001) %MON dynstat_eta_del2             =   1.1248823606420E-02
(PID.TID 0000.0001) %MON dynstat_uvel_max             =   1.8556575257459E-01
(PID.TID 0000.0001) %MON dynstat_uvel_min             =  -2.8809804481569E-01
(PID.TID 0000.0001) %MON dynstat_uvel_mean            =  -4.9152627932576E-04
(PID.TID 0000.0001) %MON dynstat_uvel_sd              =   1.2027774153283E-02
(PID.TID 0000.0001) %MON dynstat_uvel_del2            =   1.5708257853293E-03
(PID.TID 0000.0001) %MON dynstat_vvel_max             =   1.7328476181353E-01
(PID.TID 0000.0001) %MON dynstat_vvel_min             =  -2.2517541568161E-01
(PID.TID 0000.0001) %MON dynstat_vvel_mean            =  -4.0613746737248E-04
(PID.TID 0000.0001) %MON dynstat_vvel_sd              =   1.2647828376709E-02
(PID.TID 0000.0001) %MON dynstat_vvel_del2            =   1.5966902866164E-03
(PID.TID 0000.0001) %MON dynstat_wvel_max             =   1.0348488729003E-04
(PID.TID 0000.0001) %MON dynstat_wvel_min             =  -2.0531917320989E-04
(PID.TID 0000.0001) %MON dynstat_wvel_mean            =   1.3842948195561E-10
(PID.TID 0000.0001) %MON dynstat_wvel_sd              =   3.9241270816527E-06
(PID.TID 0000.0001) %MON dynstat_wvel_del2            =   8.6551063008238E-07
(PID.TID 0000.0001) %MON dynstat_theta_max            =   3.0939413979131E+01
(PID.TID 0000.0001) %MON dynstat_theta_min            =  -1.9636512373245E+00
(PID.TID 0000.0001) %MON dynstat_theta_mean           =   3.9278182539778E+00
(PID.TID 0000.0001) %MON dynstat_theta_sd             =   4.5737423308407E+00
(PID.TID 0000.0001) %MON dynstat_theta_del2           =   8.7871534275072E-02
(PID.TID 0000.0001) %MON dynstat_salt_max             =   4.1441235264632E+01
(PID.TID 0000.0001) %MON dynstat_salt_min             =   1.8388381652584E+01
(PID.TID 0000.0001) %MON dynstat_salt_mean            =   3.4775231830052E+01
(PID.TID 0000.0001) %MON dynstat_salt_sd              =   5.3478705683600E-01
(PID.TID 0000.0001) %MON dynstat_salt_del2            =   1.8923142568882E-02
(PID.TID 0000.0001) %MON advcfl_uvel_max              =   8.1710070351227E-02
(PID.TID 0000.0001) %MON advcfl_vvel_max              =   7.5532386401679E-02
(PID.TID 0000.0001) %MON advcfl_wvel_max              =   6.6941798359754E-02
(PID.TID 0000.0001) %MON advcfl_W_hf_max              =   1.2159357990102E-01
(PID.TID 0000.0001) %MON pe_b_mean                    =   4.7699361387347E-04
(PID.TID 0000.0001) %MON ke_max                       =   4.0639514625806E-02
(PID.TID 0000.0001) %MON ke_mean                      =   1.4086342543827E-04
(PID.TID 0000.0001) %MON ke_vol                       =   1.3398024453628E+18
(PID.TID 0000.0001) %MON vort_r_min                   =  -1.1879020245020E-06
(PID.TID 0000.0001) %MON vort_r_max                   =   1.2126499826216E-06
(PID.TID 0000.0001) %MON vort_a_mean                  =  -2.0493733748263E-05
(PID.TID 0000.0001) %MON vort_a_sd                    =   7.5053946540394E-05
(PID.TID 0000.0001) %MON vort_p_mean                  =  -2.4715564818764E-05
(PID.TID 0000.0001) %MON vort_p_sd                    =   1.2775775075866E-04
(PID.TID 0000.0001) %MON surfExpan_theta_mean         =   4.8463369428243E-08
(PID.TID 0000.0001) %MON surfExpan_salt_mean          =   1.4772428319210E-08
(PID.TID 0000.0001) // =======================================================
(PID.TID 0000.0001) // End MONITOR dynamic field statistics
(PID.TID 0000.0001) // =======================================================
 cg2d: Sum(rhs),rhsMax =  -3.46126294292759E-10  4.25548699718609E+00
(PID.TID 0000.0001)                    cg2d_init_res =    1.65147637759102E-01
(PID.TID 0000.0001)                       cg2d_iters =    62
(PID.TID 0000.0001)                         cg2d_res =    4.82216944421141E-07
(PID.TID 0000.0001) // =======================================================
(PID.TID 0000.0001) // Begin MONITOR dynamic field statistics
(PID.TID 0000.0001) // =======================================================
(PID.TID 0000.0001) %MON time_tsnumber                =                 72002
(PID.TID 0000.0001) %MON time_secondsf                =   6.2209728000000E+09
(PID.TID 0000.0001) %MON dynstat_eta_max              =   9.1694089434234E-01
(PID.TID 0000.0001) %MON dynstat_eta_min              =  -1.6149341104822E+00
(PID.TID 0000.0001) %MON dynstat_eta_mean             =   5.1469104018022E-13
(PID.TID 0000.0001) %MON dynstat_eta_sd               =   5.9827462600856E-01
(PID.TID 0000.0001) %MON dynstat_eta_del2             =   1.1244992588558E-02
(PID.TID 0000.0001) %MON dynstat_uvel_max             =   1.8590426341701E-01
(PID.TID 0000.0001) %MON dynstat_uvel_min             =  -2.8782710719641E-01
(PID.TID 0000.0001) %MON dynstat_uvel_mean            =  -4.9125133177959E-04
(PID.TID 0000.0001) %MON dynstat_uvel_sd              =   1.2027331667196E-02
(PID.TID 0000.0001) %MON dynstat_uvel_del2            =   1.5706945529276E-03
(PID.TID 0000.0001) %MON dynstat_vvel_max             =   1.7354816027174E-01
(PID.TID 0000.0001) %MON dynstat_vvel_min             =  -2.2513225477575E-01
(PID.TID 0000.0001) %MON dynstat_vvel_mean            =  -4.0591010529457E-04
(PID.TID 0000.0001) %MON dynstat_vvel_sd              =   1.2650984568798E-02
(PID.TID 0000.0001) %MON dynstat_vvel_del2            =   1.5960138907504E-03
(PID.TID 0000.0001) %MON dynstat_wvel_max             =   1.0359135290258E-04
(PID.TID 0000.0001) %MON dynstat_wvel_min             =  -2.0559215148152E-04
(PID.TID 0000.0001) %MON dynstat_wvel_mean            =   1.3984840901378E-10
(PID.TID 0000.0001) %MON dynstat_wvel_sd              =   3.9215152954711E-06
(PID.TID 0000.0001) %MON dynstat_wvel_del2            =   8.6430893475898E-07
(PID.TID 0000.0001) %MON dynstat_theta_max            =   3.0954276770658E+01
(PID.TID 0000.0001) %MON dynstat_theta_min            =  -1.9680120627722E+00
(PID.TID 0000.0001) %MON dynstat_theta_mean           =   3.9278754104496E+00
(PID.TID 0000.0001) %MON dynstat_theta_sd             =   4.5737652554647E+00
(PID.TID 0000.0001) %MON dynstat_theta_del2           =   8.7862206046028E-02
(PID.TID 0000.0001) %MON dynstat_salt_max             =   4.1438130364637E+01
(PID.TID 0000.0001) %MON dynstat_salt_min             =   1.8388675173948E+01
(PID.TID 0000.0001) %MON dynstat_salt_mean            =   3.4775232238179E+01
(PID.TID 0000.0001) %MON dynstat_salt_sd              =   5.3478589108980E-01
(PID.TID 0000.0001) %MON dynstat_salt_del2            =   1.8922402089695E-02
(PID.TID 0000.0001) %MON advcfl_uvel_max              =   8.1633227303068E-02
(PID.TID 0000.0001) %MON advcfl_vvel_max              =   7.5647198078796E-02
(PID.TID 0000.0001) %MON advcfl_wvel_max              =   6.7030799577371E-02
(PID.TID 0000.0001) %MON advcfl_W_hf_max              =   1.2113814934352E-01
(PID.TID 0000.0001) %MON pe_b_mean                    =   4.7683227199537E-04
(PID.TID 0000.0001) %MON ke_max                       =   4.0534882631448E-02
(PID.TID 0000.0001) %MON ke_mean                      =   1.4089536368989E-04
(PID.TID 0000.0001) %MON ke_vol                       =   1.3398024453628E+18
(PID.TID 0000.0001) %MON vort_r_min                   =  -1.1918732755407E-06
(PID.TID 0000.0001) %MON vort_r_max                   =   1.2138335588230E-06
(PID.TID 0000.0001) %MON vort_a_mean                  =  -2.0493733748264E-05
(PID.TID 0000.0001) %MON vort_a_sd                    =   7.5053946415160E-05
(PID.TID 0000.0001) %MON vort_p_mean                  =  -2.4715565117102E-05
(PID.TID 0000.0001) %MON vort_p_sd                    =   1.2775774902757E-04
(PID.TID 0000.0001) %MON surfExpan_theta_mean         =   4.8658050075601E-08
(PID.TID 0000.0001) %MON surfExpan_salt_mean          =   1.4809703193173E-08
(PID.TID 0000.0001) // =======================================================
(PID.TID 0000.0001) // End MONITOR dynamic field statistics
(PID.TID 0000.0001) // =======================================================
 cg2d: Sum(rhs),rhsMax =  -3.46171535881012E-10  4.25267386596450E+00
(PID.TID 0000.0001)                    cg2d_init_res =    1.57477829239653E-01
(PID.TID 0000.0001)                       cg2d_iters =    62
(PID.TID 0000.0001)                         cg2d_res =    4.69651914419753E-07
(PID.TID 0000.0001) // =======================================================
(PID.TID 0000.0001) // Begin MONITOR dynamic field statistics
(PID.TID 0000.0001) // =======================================================
(PID.TID 0000.0001) %MON time_tsnumber                =                 72003
(PID.TID 0000.0001) %MON time_secondsf                =   6.2210592000000E+09
(PID.TID 0000.0001) %MON dynstat_eta_max              =   9.1527166498707E-01
(PID.TID 0000.0001) %MON dynstat_eta_min              =  -1.6144645711341E+00
(PID.TID 0000.0001) %MON dynstat_eta_mean             =   5.1477023938964E-13
(PID.TID 0000.0001) %MON dynstat_eta_sd               =   5.9817362026517E-01
(PID.TID 0000.0001) %MON dynstat_eta_del2             =   1.1241904919832E-02
(PID.TID 0000.0001) %MON dynstat_uvel_max             =   1.8618175918066E-01
(PID.TID 0000.0001) %MON dynstat_uvel_min             =  -2.8754252309727E-01
(PID.TID 0000.0001) %MON dynstat_uvel_mean            =  -4.9093367380091E-04
(PID.TID 0000.0001) %MON dynstat_uvel_sd              =   1.2026681853300E-02
(PID.TID 0000.0001) %MON dynstat_uvel_del2            =   1.5705736111812E-03
(PID.TID 0000.0001) %MON dynstat_vvel_max             =   1.7378358680248E-01
(PID.TID 0000.0001) %MON dynstat_vvel_min             =  -2.2508084195469E-01
(PID.TID 0000.0001) %MON dynstat_vvel_mean            =  -4.0566198619164E-04
(PID.TID 0000.0001) %MON dynstat_vvel_sd              =   1.2654132350996E-02
(PID.TID 0000.0001) %MON dynstat_vvel_del2            =   1.5953224813831E-03
(PID.TID 0000.0001) %MON dynstat_wvel_max             =   1.0376511608183E-04
(PID.TID 0000.0001) %MON dynstat_wvel_min             =  -2.0581379849967E-04
(PID.TID 0000.0001) %MON dynstat_wvel_mean            =   1.3835098686716E-10
(PID.TID 0000.0001) %MON dynstat_wvel_sd              =   3.9186851563829E-06
(PID.TID 0000.0001) %MON dynstat_wvel_del2            =   8.6379622946293E-07
(PID.TID 0000.0001) %MON dynstat_theta_max            =   3.0968620772232E+01
(PID.TID 0000.0001) %MON dynstat_theta_min            =  -1.9695491911020E+00
(PID.TID 0000.0001) %MON dynstat_theta_mean           =   3.9279332153501E+00
(PID.TID 0000.0001) %MON dynstat_theta_sd             =   4.5737937701713E+00
(PID.TID 0000.0001) %MON dynstat_theta_del2           =   8.7874310037379E-02
(PID.TID 0000.0001) %MON dynstat_salt_max             =   4.1435024632468E+01
(PID.TID 0000.0001) %MON dynstat_salt_min             =   1.8388975569165E+01
(PID.TID 0000.0001) %MON dynstat_salt_mean            =   3.4775232663508E+01
(PID.TID 0000.0001) %MON dynstat_salt_sd              =   5.3478427804440E-01
(PID.TID 0000.0001) %MON dynstat_salt_del2            =   1.8923825147095E-02
(PID.TID 0000.0001) %MON advcfl_uvel_max              =   8.1552513854365E-02
(PID.TID 0000.0001) %MON advcfl_vvel_max              =   7.5749817186807E-02
(PID.TID 0000.0001) %MON advcfl_wvel_max              =   6.7103064869325E-02
(PID.TID 0000.0001) %MON advcfl_W_hf_max              =   1.2060164171633E-01
(PID.TID 0000.0001) %MON pe_b_mean                    =   4.7667127993458E-04
(PID.TID 0000.0001) %MON ke_max                       =   4.0426950898402E-02
(PID.TID 0000.0001) %MON ke_mean                      =   1.4092489728564E-04
(PID.TID 0000.0001) %MON ke_vol                       =   1.3398024453628E+18
(PID.TID 0000.0001) %MON vort_r_min                   =  -1.1961506451003E-06
(PID.TID 0000.0001) %MON vort_r_max                   =   1.2152798516605E-06
(PID.TID 0000.0001) %MON vort_a_mean                  =  -2.0493733748263E-05
(PID.TID 0000.0001) %MON vort_a_sd                    =   7.5053946295213E-05
(PID.TID 0000.0001) %MON vort_p_mean                  =  -2.4715565412731E-05
(PID.TID 0000.0001) %MON vort_p_sd                    =   1.2775774744158E-04
(PID.TID 0000.0001) %MON surfExpan_theta_mean         =   4.8825820135557E-08
(PID.TID 0000.0001) %MON surfExpan_salt_mean          =   1.4830807127370E-08
(PID.TID 0000.0001) // =======================================================
(PID.TID 0000.0001) // End MONITOR dynamic field statistics
(PID.TID 0000.0001) // =======================================================
 cg2d: Sum(rhs),rhsMax =  -3.46129902517589E-10  4.25006736097802E+00
(PID.TID 0000.0001)                    cg2d_init_res =    1.59034881019331E-01
(PID.TID 0000.0001)                       cg2d_iters =    62
(PID.TID 0000.0001)                         cg2d_res =    4.72062111652289E-07
(PID.TID 0000.0001) // =======================================================
(PID.TID 0000.0001) // Begin MONITOR dynamic field statistics
(PID.TID 0000.0001) // =======================================================
(PID.TID 0000.0001) %MON time_tsnumber                =                 72004
(PID.TID 0000.0001) %MON time_secondsf                =   6.2211456000000E+09
(PID.TID 0000.0001) %MON dynstat_eta_max              =   9.1362565751651E-01
(PID.TID 0000.0001) %MON dynstat_eta_min              =  -1.6139958403093E+00
(PID.TID 0000.0001) %MON dynstat_eta_mean             =   5.1480920135374E-13
(PID.TID 0000.0001) %MON dynstat_eta_sd               =   5.9807254247625E-01
(PID.TID 0000.0001) %MON dynstat_eta_del2             =   1.1239173613582E-02
(PID.TID 0000.0001) %MON dynstat_uvel_max             =   1.8639491662495E-01
(PID.TID 0000.0001) %MON dynstat_uvel_min             =  -2.8724409673424E-01
(PID.TID 0000.0001) %MON dynstat_uvel_mean            =  -4.9057449788877E-04
(PID.TID 0000.0001) %MON dynstat_uvel_sd              =   1.2025882217186E-02
(PID.TID 0000.0001) %MON dynstat_uvel_del2            =   1.5704882095646E-03
(PID.TID 0000.0001) %MON dynstat_vvel_max             =   1.7398953286005E-01
(PID.TID 0000.0001) %MON dynstat_vvel_min             =  -2.2502163302417E-01
(PID.TID 0000.0001) %MON dynstat_vvel_mean            =  -4.0539423568460E-04
(PID.TID 0000.0001) %MON dynstat_vvel_sd              =   1.2657199316794E-02
(PID.TID 0000.0001) %MON dynstat_vvel_del2            =   1.5947434185212E-03
(PID.TID 0000.0001) %MON dynstat_wvel_max             =   1.0400267504236E-04
(PID.TID 0000.0001) %MON dynstat_wvel_min             =  -2.0598136339996E-04
(PID.TID 0000.0001) %MON dynstat_wvel_mean            =   1.3513395780013E-10
(PID.TID 0000.0001) %MON dynstat_wvel_sd              =   3.9156624096600E-06
(PID.TID 0000.0001) %MON dynstat_wvel_del2            =   8.6314435187596E-07
(PID.TID 0000.0001) %MON dynstat_theta_max            =   3.0982464219878E+01
(PID.TID 0000.0001) %MON dynstat_theta_min            =  -1.9958110441010E+00
(PID.TID 0000.0001) %MON dynstat_theta_mean           =   3.9279911971885E+00
(PID.TID 0000.0001) %MON dynstat_theta_sd             =   4.5738290889940E+00
(PID.TID 0000.0001) %MON dynstat_theta_del2           =   8.7874525801757E-02
(PID.TID 0000.0001) %MON dynstat_salt_max             =   4.1431927245154E+01
(PID.TID 0000.0001) %MON dynstat_salt_min             =   1.8389282618894E+01
(PID.TID 0000.0001) %MON dynstat_salt_mean            =   3.4775233107669E+01
(PID.TID 0000.0001) %MON dynstat_salt_sd              =   5.3478259325646E-01
(PID.TID 0000.0001) %MON dynstat_salt_del2            =   1.8932286877305E-02
(PID.TID 0000.0001) %MON advcfl_uvel_max              =   8.1467874477056E-02
(PID.TID 0000.0001) %MON advcfl_vvel_max              =   7.5839586171889E-02
(PID.TID 0000.0001) %MON advcfl_wvel_max              =   6.7157697350025E-02
(PID.TID 0000.0001) %MON advcfl_W_hf_max              =   1.1998504117868E-01
(PID.TID 0000.0001) %MON pe_b_mean                    =   4.7651020025254E-04
(PID.TID 0000.0001) %MON ke_max                       =   4.0315773188714E-02
(PID.TID 0000.0001) %MON ke_mean                      =   1.4095181248881E-04
(PID.TID 0000.0001) %MON ke_vol                       =   1.3398024453628E+18
(PID.TID 0000.0001) %MON vort_r_min                   =  -1.2007051602626E-06
(PID.TID 0000.0001) %MON vort_r_max                   =   1.2169633771679E-06
(PID.TID 0000.0001) %MON vort_a_mean                  =  -2.0493733748263E-05
(PID.TID 0000.0001) %MON vort_a_sd                    =   7.5053946180264E-05
(PID.TID 0000.0001) %MON vort_p_mean                  =  -2.4715565704626E-05
(PID.TID 0000.0001) %MON vort_p_sd                    =   1.2775774598232E-04
(PID.TID 0000.0001) %MON surfExpan_theta_mean         =   4.8986931802707E-08
(PID.TID 0000.0001) %MON surfExpan_salt_mean          =   1.4862097728105E-08
(PID.TID 0000.0001) // =======================================================
(PID.TID 0000.0001) // End MONITOR dynamic field statistics
(PID.TID 0000.0001) // =======================================================
 cg2d: Sum(rhs),rhsMax =  -3.45944495272477E-10  4.24767409225093E+00
(PID.TID 0000.0001)                    cg2d_init_res =    1.59744290576732E-01
(PID.TID 0000.0001)                       cg2d_iters =    62
(PID.TID 0000.0001)                         cg2d_res =    4.73820079366010E-07
(PID.TID 0000.0001) // =======================================================
(PID.TID 0000.0001) // Begin MONITOR dynamic field statistics
(PID.TID 0000.0001) // =======================================================
(PID.TID 0000.0001) %MON time_tsnumber                =                 72005
(PID.TID 0000.0001) %MON time_secondsf                =   6.2212320000000E+09
(PID.TID 0000.0001) %MON dynstat_eta_max              =   9.1200816597858E-01
(PID.TID 0000.0001) %MON dynstat_eta_min              =  -1.6135251339688E+00
(PID.TID 0000.0001) %MON dynstat_eta_mean             =   5.1473279258857E-13
(PID.TID 0000.0001) %MON dynstat_eta_sd               =   5.9797129263092E-01
(PID.TID 0000.0001) %MON dynstat_eta_del2             =   1.1237036675633E-02
(PID.TID 0000.0001) %MON dynstat_uvel_max             =   1.8654137765742E-01
(PID.TID 0000.0001) %MON dynstat_uvel_min             =  -2.8693162334623E-01
(PID.TID 0000.0001) %MON dynstat_uvel_mean            =  -4.9017629291546E-04
(PID.TID 0000.0001) %MON dynstat_uvel_sd              =   1.2024994235045E-02
(PID.TID 0000.0001) %MON dynstat_uvel_del2            =   1.5704995212835E-03
(PID.TID 0000.0001) %MON dynstat_vvel_max             =   1.7416486199104E-01
(PID.TID 0000.0001) %MON dynstat_vvel_min             =  -2.2495509251344E-01
(PID.TID 0000.0001) %MON dynstat_vvel_mean            =  -4.0510755664229E-04
(PID.TID 0000.0001) %MON dynstat_vvel_sd              =   1.2660112118642E-02
(PID.TID 0000.0001) %MON dynstat_vvel_del2            =   1.5941495889488E-03
(PID.TID 0000.0001) %MON dynstat_wvel_max             =   1.0429849895628E-04
(PID.TID 0000.0001) %MON dynstat_wvel_min             =  -2.0609302148338E-04
(PID.TID 0000.0001) %MON dynstat_wvel_mean            =   1.2951052446503E-10
(PID.TID 0000.0001) %MON dynstat_wvel_sd              =   3.9124892272726E-06
(PID.TID 0000.0001) %MON dynstat_wvel_del2            =   8.6186490960207E-07
(PID.TID 0000.0001) %MON dynstat_theta_max            =   3.0995824467340E+01
(PID.TID 0000.0001) %MON dynstat_theta_min            =  -2.0240575211381E+00
(PID.TID 0000.0001) %MON dynstat_theta_mean           =   3.9280493057416E+00
(PID.TID 0000.0001) %MON dynstat_theta_sd             =   4.5738707111830E+00
(PID.TID 0000.0001) %MON dynstat_theta_del2           =   8.7860562076035E-02
(PID.TID 0000.0001) %MON dynstat_salt_max             =   4.1428837087217E+01
(PID.TID 0000.0001) %MON dynstat_salt_min             =   1.8389596156512E+01
(PID.TID 0000.0001) %MON dynstat_salt_mean            =   3.4775233568705E+01
(PID.TID 0000.0001) %MON dynstat_salt_sd              =   5.3478077615400E-01
(PID.TID 0000.0001) %MON dynstat_salt_del2            =   1.8926308712576E-02
(PID.TID 0000.0001) %MON advcfl_uvel_max              =   8.1379251097004E-02
(PID.TID 0000.0001) %MON advcfl_vvel_max              =   7.5916009670014E-02
(PID.TID 0000.0001) %MON advcfl_wvel_max              =   6.7194102098733E-02
(PID.TID 0000.0001) %MON advcfl_W_hf_max              =   1.1928971661562E-01
(PID.TID 0000.0001) %MON pe_b_mean                    =   4.7634887366845E-04
(PID.TID 0000.0001) %MON ke_max                       =   4.0201400296764E-02
(PID.TID 0000.0001) %MON ke_mean                      =   1.4097592785798E-04
(PID.TID 0000.0001) %MON ke_vol                       =   1.3398024453628E+18
(PID.TID 0000.0001) %MON vort_r_min                   =  -1.2055067973823E-06
(PID.TID 0000.0001) %MON vort_r_max                   =   1.2188467833302E-06
(PID.TID 0000.0001) %MON vort_a_mean                  =  -2.0493733748264E-05
(PID.TID 0000.0001) %MON vort_a_sd                    =   7.5053946070163E-05
(PID.TID 0000.0001) %MON vort_p_mean                  =  -2.4715565992390E-05
(PID.TID 0000.0001) %MON vort_p_sd                    =   1.2775774464391E-04
(PID.TID 0000.0001) %MON surfExpan_theta_mean         =   4.9095774206957E-08
(PID.TID 0000.0001) %MON surfExpan_salt_mean          =   1.4901440594212E-08
(PID.TID 0000.0001) // =======================================================
(PID.TID 0000.0001) // End MONITOR dynamic field statistics
(PID.TID 0000.0001) // =======================================================
 cg2d: Sum(rhs),rhsMax =  -3.45912576360519E-10  4.24549627114127E+00
(PID.TID 0000.0001)                    cg2d_init_res =    1.58946000486896E-01
(PID.TID 0000.0001)                       cg2d_iters =    62
(PID.TID 0000.0001)                         cg2d_res =    4.75365982387723E-07
(PID.TID 0000.0001) // =======================================================
(PID.TID 0000.0001) // Begin MONITOR dynamic field statistics
(PID.TID 0000.0001) // =======================================================
(PID.TID 0000.0001) %MON time_tsnumber                =                 72006
(PID.TID 0000.0001) %MON time_secondsf                =   6.2213184000000E+09
(PID.TID 0000.0001) %MON dynstat_eta_max              =   9.1044830981651E-01
(PID.TID 0000.0001) %MON dynstat_eta_min              =  -1.6130509342236E+00
(PID.TID 0000.0001) %MON dynstat_eta_mean             =   5.1474349370758E-13
(PID.TID 0000.0001) %MON dynstat_eta_sd               =   5.9787003060860E-01
(PID.TID 0000.0001) %MON dynstat_eta_del2             =   1.1235451205904E-02
(PID.TID 0000.0001) %MON dynstat_uvel_max             =   1.8661976706722E-01
(PID.TID 0000.0001) %MON dynstat_uvel_min             =  -2.8660488771955E-01
(PID.TID 0000.0001) %MON dynstat_uvel_mean            =  -4.8974132969389E-04
(PID.TID 0000.0001) %MON dynstat_uvel_sd              =   1.2024080714439E-02
(PID.TID 0000.0001) %MON dynstat_uvel_del2            =   1.5704146005285E-03
(PID.TID 0000.0001) %MON dynstat_vvel_max             =   1.7430839474906E-01
(PID.TID 0000.0001) %MON dynstat_vvel_min             =  -2.2488168953417E-01
(PID.TID 0000.0001) %MON dynstat_vvel_mean            =  -4.0480380574974E-04
(PID.TID 0000.0001) %MON dynstat_vvel_sd              =   1.2662798549318E-02
(PID.TID 0000.0001) %MON dynstat_vvel_del2            =   1.5935498651432E-03
(PID.TID 0000.0001) %MON dynstat_wvel_max             =   1.0464658493137E-04
(PID.TID 0000.0001) %MON dynstat_wvel_min             =  -2.0614785348334E-04
(PID.TID 0000.0001) %MON dynstat_wvel_mean            =   1.2209948630020E-10
(PID.TID 0000.0001) %MON dynstat_wvel_sd              =   3.9092364769336E-06
(PID.TID 0000.0001) %MON dynstat_wvel_del2            =   8.6054818298528E-07
(PID.TID 0000.0001) %MON dynstat_theta_max            =   3.1008717992287E+01
(PID.TID 0000.0001) %MON dynstat_theta_min            =  -2.0525234056300E+00
(PID.TID 0000.0001) %MON dynstat_theta_mean           =   3.9281074756403E+00
(PID.TID 0000.0001) %MON dynstat_theta_sd             =   4.5739180495258E+00
(PID.TID 0000.0001) %MON dynstat_theta_del2           =   8.7877781190211E-02
(PID.TID 0000.0001) %MON dynstat_salt_max             =   4.1425753777366E+01
(PID.TID 0000.0001) %MON dynstat_salt_min             =   1.8389916029929E+01
(PID.TID 0000.0001) %MON dynstat_salt_mean            =   3.4775234045943E+01
(PID.TID 0000.0001) %MON dynstat_salt_sd              =   5.3477826089877E-01
(PID.TID 0000.0001) %MON dynstat_salt_del2            =   1.8927634647788E-02
(PID.TID 0000.0001) %MON advcfl_uvel_max              =   8.1286582675533E-02
(PID.TID 0000.0001) %MON advcfl_vvel_max              =   7.5978573577115E-02
(PID.TID 0000.0001) %MON advcfl_wvel_max              =   6.7211979399853E-02
(PID.TID 0000.0001) %MON advcfl_W_hf_max              =   1.1851641999856E-01
(PID.TID 0000.0001) %MON pe_b_mean                    =   4.7618755500094E-04
(PID.TID 0000.0001) %MON ke_max                       =   4.0083878346812E-02
(PID.TID 0000.0001) %MON ke_mean                      =   1.4099708940920E-04
(PID.TID 0000.0001) %MON ke_vol                       =   1.3398024453628E+18
(PID.TID 0000.0001) %MON vort_r_min                   =  -1.2105246784135E-06
(PID.TID 0000.0001) %MON vort_r_max                   =   1.2209024692530E-06
(PID.TID 0000.0001) %MON vort_a_mean                  =  -2.0493733748263E-05
(PID.TID 0000.0001) %MON vort_a_sd                    =   7.5053945964525E-05
(PID.TID 0000.0001) %MON vort_p_mean                  =  -2.4715566274665E-05
(PID.TID 0000.0001) %MON vort_p_sd                    =   1.2775774340648E-04
(PID.TID 0000.0001) %MON surfExpan_theta_mean         =   4.9169883374092E-08
(PID.TID 0000.0001) %MON surfExpan_salt_mean          =   1.4948660976833E-08
(PID.TID 0000.0001) // =======================================================
(PID.TID 0000.0001) // End MONITOR dynamic field statistics
(PID.TID 0000.0001) // =======================================================
 cg2d: Sum(rhs),rhsMax =  -3.46111084237322E-10  4.24353168108186E+00
(PID.TID 0000.0001)                    cg2d_init_res =    1.58276858739518E-01
(PID.TID 0000.0001)                       cg2d_iters =    62
(PID.TID 0000.0001)                         cg2d_res =    4.78582345497260E-07
(PID.TID 0000.0001) // =======================================================
(PID.TID 0000.0001) // Begin MONITOR dynamic field statistics
(PID.TID 0000.0001) // =======================================================
(PID.TID 0000.0001) %MON time_tsnumber                =                 72007
(PID.TID 0000.0001) %MON time_secondsf                =   6.2214048000000E+09
(PID.TID 0000.0001) %MON dynstat_eta_max              =   9.0894711374298E-01
(PID.TID 0000.0001) %MON dynstat_eta_min              =  -1.6125702446075E+00
(PID.TID 0000.0001) %MON dynstat_eta_mean             =   5.1482705232931E-13
(PID.TID 0000.0001) %MON dynstat_eta_sd               =   5.9776900368940E-01
(PID.TID 0000.0001) %MON dynstat_eta_del2             =   1.1234540305509E-02
(PID.TID 0000.0001) %MON dynstat_uvel_max             =   1.8662969384353E-01
(PID.TID 0000.0001) %MON dynstat_uvel_min             =  -2.8626366488274E-01
(PID.TID 0000.0001) %MON dynstat_uvel_mean            =  -4.8927240041167E-04
(PID.TID 0000.0001) %MON dynstat_uvel_sd              =   1.2023202842008E-02
(PID.TID 0000.0001) %MON dynstat_uvel_del2            =   1.5702566375728E-03
(PID.TID 0000.0001) %MON dynstat_vvel_max             =   1.7441911914335E-01
(PID.TID 0000.0001) %MON dynstat_vvel_min             =  -2.2480189436253E-01
(PID.TID 0000.0001) %MON dynstat_vvel_mean            =  -4.0448504191823E-04
(PID.TID 0000.0001) %MON dynstat_vvel_sd              =   1.2665190954678E-02
(PID.TID 0000.0001) %MON dynstat_vvel_del2            =   1.5929925731700E-03
(PID.TID 0000.0001) %MON dynstat_wvel_max             =   1.0503950709637E-04
(PID.TID 0000.0001) %MON dynstat_wvel_min             =  -2.0614533864908E-04
(PID.TID 0000.0001) %MON dynstat_wvel_mean            =   1.1382416971465E-10
(PID.TID 0000.0001) %MON dynstat_wvel_sd              =   3.9059749609340E-06
(PID.TID 0000.0001) %MON dynstat_wvel_del2            =   8.5986777788678E-07
(PID.TID 0000.0001) %MON dynstat_theta_max            =   3.1021160397139E+01
(PID.TID 0000.0001) %MON dynstat_theta_min            =  -2.0811687055045E+00
(PID.TID 0000.0001) %MON dynstat_theta_mean           =   3.9281657631053E+00
(PID.TID 0000.0001) %MON dynstat_theta_sd             =   4.5739719444694E+00
(PID.TID 0000.0001) %MON dynstat_theta_del2           =   8.7888342158732E-02
(PID.TID 0000.0001) %MON dynstat_salt_max             =   4.1422677250683E+01
(PID.TID 0000.0001) %MON dynstat_salt_min             =   1.8390242102174E+01
(PID.TID 0000.0001) %MON dynstat_salt_mean            =   3.4775234541217E+01
(PID.TID 0000.0001) %MON dynstat_salt_sd              =   5.3477574909706E-01
(PID.TID 0000.0001) %MON dynstat_salt_del2            =   1.8928821761662E-02
(PID.TID 0000.0001) %MON advcfl_uvel_max              =   8.1189805406466E-02
(PID.TID 0000.0001) %MON advcfl_vvel_max              =   7.6026836780675E-02
(PID.TID 0000.0001) %MON advcfl_wvel_max              =   6.7211159468982E-02
(PID.TID 0000.0001) %MON advcfl_W_hf_max              =   1.1766706269576E-01
(PID.TID 0000.0001) %MON pe_b_mean                    =   4.7602663809726E-04
(PID.TID 0000.0001) %MON ke_max                       =   3.9963248150239E-02
(PID.TID 0000.0001) %MON ke_mean                      =   1.4101517823457E-04
(PID.TID 0000.0001) %MON ke_vol                       =   1.3398024453628E+18
(PID.TID 0000.0001) %MON vort_r_min                   =  -1.2157273853935E-06
(PID.TID 0000.0001) %MON vort_r_max                   =   1.2230869080335E-06
(PID.TID 0000.0001) %MON vort_a_mean                  =  -2.0493733748264E-05
(PID.TID 0000.0001) %MON vort_a_sd                    =   7.5053945863075E-05
(PID.TID 0000.0001) %MON vort_p_mean                  =  -2.4715566552196E-05
(PID.TID 0000.0001) %MON vort_p_sd                    =   1.2775774225867E-04
(PID.TID 0000.0001) %MON surfExpan_theta_mean         =   4.9237060665563E-08
(PID.TID 0000.0001) %MON surfExpan_salt_mean          =   1.5005094297552E-08
(PID.TID 0000.0001) // =======================================================
(PID.TID 0000.0001) // End MONITOR dynamic field statistics
(PID.TID 0000.0001) // =======================================================
 cg2d: Sum(rhs),rhsMax =  -3.45974526805293E-10  4.24177376558879E+00
(PID.TID 0000.0001)                    cg2d_init_res =    1.57750683863610E-01
(PID.TID 0000.0001)                       cg2d_iters =    62
(PID.TID 0000.0001)                         cg2d_res =    4.81320365257014E-07
(PID.TID 0000.0001) // =======================================================
(PID.TID 0000.0001) // Begin MONITOR dynamic field statistics
(PID.TID 0000.0001) // =======================================================
(PID.TID 0000.0001) %MON time_tsnumber                =                 72008
(PID.TID 0000.0001) %MON time_secondsf                =   6.2214912000000E+09
(PID.TID 0000.0001) %MON dynstat_eta_max              =   9.0746129231068E-01
(PID.TID 0000.0001) %MON dynstat_eta_min              =  -1.6120820020296E+00
(PID.TID 0000.0001) %MON dynstat_eta_mean             =   5.1473391371434E-13
(PID.TID 0000.0001) %MON dynstat_eta_sd               =   5.9766855813262E-01
(PID.TID 0000.0001) %MON dynstat_eta_del2             =   1.1234205651762E-02
(PID.TID 0000.0001) %MON dynstat_uvel_max             =   1.8657173889728E-01
(PID.TID 0000.0001) %MON dynstat_uvel_min             =  -2.8590772658101E-01
(PID.TID 0000.0001) %MON dynstat_uvel_mean            =  -4.8877281175044E-04
(PID.TID 0000.0001) %MON dynstat_uvel_sd              =   1.2022416033112E-02
(PID.TID 0000.0001) %MON dynstat_uvel_del2            =   1.5700002689631E-03
(PID.TID 0000.0001) %MON dynstat_vvel_max             =   1.7449605340859E-01
(PID.TID 0000.0001) %MON dynstat_vvel_min             =  -2.2471617592584E-01
(PID.TID 0000.0001) %MON dynstat_vvel_mean            =  -4.0415206247164E-04
(PID.TID 0000.0001) %MON dynstat_vvel_sd              =   1.2667229445482E-02
(PID.TID 0000.0001) %MON dynstat_vvel_del2            =   1.5924809799970E-03
(PID.TID 0000.0001) %MON dynstat_wvel_max             =   1.0546928216224E-04
(PID.TID 0000.0001) %MON dynstat_wvel_min             =  -2.0608561636447E-04
(PID.TID 0000.0001) %MON dynstat_wvel_mean            =   1.0391876871151E-10
(PID.TID 0000.0001) %MON dynstat_wvel_sd              =   3.9027538374308E-06
(PID.TID 0000.0001) %MON dynstat_wvel_del2            =   8.5947211877246E-07
(PID.TID 0000.0001) %MON dynstat_theta_max            =   3.1033166411491E+01
(PID.TID 0000.0001) %MON dynstat_theta_min            =  -2.1099578695635E+00
(PID.TID 0000.0001) %MON dynstat_theta_mean           =   3.9282241333424E+00
(PID.TID 0000.0001) %MON dynstat_theta_sd             =   4.5740310244490E+00
(PID.TID 0000.0001) %MON dynstat_theta_del2           =   8.7898375292551E-02
(PID.TID 0000.0001) %MON dynstat_salt_max             =   4.1419607758055E+01
(PID.TID 0000.0001) %MON dynstat_salt_min             =   1.8390574252590E+01
(PID.TID 0000.0001) %MON dynstat_salt_mean            =   3.4775235053815E+01
(PID.TID 0000.0001) %MON dynstat_salt_sd              =   5.3477242397302E-01
(PID.TID 0000.0001) %MON dynstat_salt_del2            =   1.8931130392412E-02
(PID.TID 0000.0001) %MON advcfl_uvel_max              =   8.1088854552413E-02
(PID.TID 0000.0001) %MON advcfl_vvel_max              =   7.6060371343029E-02
(PID.TID 0000.0001) %MON advcfl_wvel_max              =   6.7191687750528E-02
(PID.TID 0000.0001) %MON advcfl_W_hf_max              =   1.1674308730761E-01
(PID.TID 0000.0001) %MON pe_b_mean                    =   4.7586667415415E-04
(PID.TID 0000.0001) %MON ke_max                       =   3.9839546365033E-02
(PID.TID 0000.0001) %MON ke_mean                      =   1.4103010218210E-04
(PID.TID 0000.0001) %MON ke_vol                       =   1.3398024453628E+18
(PID.TID 0000.0001) %MON vort_r_min                   =  -1.2210832524619E-06
(PID.TID 0000.0001) %MON vort_r_max                   =   1.2253758936156E-06
(PID.TID 0000.0001) %MON vort_a_mean                  =  -2.0493733748263E-05
(PID.TID 0000.0001) %MON vort_a_sd                    =   7.5053945765705E-05
(PID.TID 0000.0001) %MON vort_p_mean                  =  -2.4715566824004E-05
(PID.TID 0000.0001) %MON vort_p_sd                    =   1.2775774118489E-04
(PID.TID 0000.0001) %MON surfExpan_theta_mean         =   4.9282027746784E-08
(PID.TID 0000.0001) %MON surfExpan_salt_mean          =   1.5067192356019E-08
(PID.TID 0000.0001) // =======================================================
(PID.TID 0000.0001) // End MONITOR dynamic field statistics
(PID.TID 0000.0001) // =======================================================
 cg2d: Sum(rhs),rhsMax =  -3.46176309840018E-10  4.24021181084958E+00
(PID.TID 0000.0001)                    cg2d_init_res =    1.60175622536607E-01
(PID.TID 0000.0001)                       cg2d_iters =    62
(PID.TID 0000.0001)                         cg2d_res =    4.87787045455729E-07
(PID.TID 0000.0001) // =======================================================
(PID.TID 0000.0001) // Begin MONITOR dynamic field statistics
(PID.TID 0000.0001) // =======================================================
(PID.TID 0000.0001) %MON time_tsnumber                =                 72009
(PID.TID 0000.0001) %MON time_secondsf                =   6.2215776000000E+09
(PID.TID 0000.0001) %MON dynstat_eta_max              =   9.0601800397890E-01
(PID.TID 0000.0001) %MON dynstat_eta_min              =  -1.6115853193761E+00
(PID.TID 0000.0001) %MON dynstat_eta_mean             =   5.1470308823312E-13
(PID.TID 0000.0001) %MON dynstat_eta_sd               =   5.9756908456822E-01
(PID.TID 0000.0001) %MON dynstat_eta_del2             =   1.1233958705416E-02
(PID.TID 0000.0001) %MON dynstat_uvel_max             =   1.8644742928920E-01
(PID.TID 0000.0001) %MON dynstat_uvel_min             =  -2.8553684303521E-01
(PID.TID 0000.0001) %MON dynstat_uvel_mean            =  -4.8824508934812E-04
(PID.TID 0000.0001) %MON dynstat_uvel_sd              =   1.2021767526313E-02
(PID.TID 0000.0001) %MON dynstat_uvel_del2            =   1.5696410180154E-03
(PID.TID 0000.0001) %MON dynstat_vvel_max             =   1.7453834195626E-01
(PID.TID 0000.0001) %MON dynstat_vvel_min             =  -2.2462499571438E-01
(PID.TID 0000.0001) %MON dynstat_vvel_mean            =  -4.0380722755635E-04
(PID.TID 0000.0001) %MON dynstat_vvel_sd              =   1.2668864527176E-02
(PID.TID 0000.0001) %MON dynstat_vvel_del2            =   1.5919768971613E-03
(PID.TID 0000.0001) %MON dynstat_wvel_max             =   1.0592699519181E-04
(PID.TID 0000.0001) %MON dynstat_wvel_min             =  -2.0596939658322E-04
(PID.TID 0000.0001) %MON dynstat_wvel_mean            =   9.3785303417645E-11
(PID.TID 0000.0001) %MON dynstat_wvel_sd              =   3.8996053507092E-06
(PID.TID 0000.0001) %MON dynstat_wvel_del2            =   8.5902844083915E-07
(PID.TID 0000.0001) %MON dynstat_theta_max            =   3.1044749894511E+01
(PID.TID 0000.0001) %MON dynstat_theta_min            =  -2.1388537152304E+00
(PID.TID 0000.0001) %MON dynstat_theta_mean           =   3.9282825475450E+00
(PID.TID 0000.0001) %MON dynstat_theta_sd             =   4.5740937861459E+00
(PID.TID 0000.0001) %MON dynstat_theta_del2           =   8.7932298031120E-02
(PID.TID 0000.0001) %MON dynstat_salt_max             =   4.1416545698537E+01
(PID.TID 0000.0001) %MON dynstat_salt_min             =   1.8390912378077E+01
(PID.TID 0000.0001) %MON dynstat_salt_mean            =   3.4775235583101E+01
(PID.TID 0000.0001) %MON dynstat_salt_sd              =   5.3476751807904E-01
(PID.TID 0000.0001) %MON dynstat_salt_del2            =   1.8939603230777E-02
(PID.TID 0000.0001) %MON advcfl_uvel_max              =   8.0983664943649E-02
(PID.TID 0000.0001) %MON advcfl_vvel_max              =   7.6078804325187E-02
(PID.TID 0000.0001) %MON advcfl_wvel_max              =   6.7153795716190E-02
(PID.TID 0000.0001) %MON advcfl_W_hf_max              =   1.1574642573766E-01
(PID.TID 0000.0001) %MON pe_b_mean                    =   4.7570828464414E-04
(PID.TID 0000.0001) %MON ke_max                       =   3.9712804802052E-02
(PID.TID 0000.0001) %MON ke_mean                      =   1.4104180087544E-04
(PID.TID 0000.0001) %MON ke_vol                       =   1.3398024453628E+18
(PID.TID 0000.0001) %MON vort_r_min                   =  -1.2265606464279E-06
(PID.TID 0000.0001) %MON vort_r_max                   =   1.2277144850759E-06
(PID.TID 0000.0001) %MON vort_a_mean                  =  -2.0493733748263E-05
(PID.TID 0000.0001) %MON vort_a_sd                    =   7.5053945672131E-05
(PID.TID 0000.0001) %MON vort_p_mean                  =  -2.4715567088978E-05
(PID.TID 0000.0001) %MON vort_p_sd                    =   1.2775774016262E-04
(PID.TID 0000.0001) %MON surfExpan_theta_mean         =   4.9317297998443E-08
(PID.TID 0000.0001) %MON surfExpan_salt_mean          =   1.5130146820157E-08
(PID.TID 0000.0001) // =======================================================
(PID.TID 0000.0001) // End MONITOR dynamic field statistics
(PID.TID 0000.0001) // =======================================================
 cg2d: Sum(rhs),rhsMax =  -3.46147555063681E-10  4.23883118375422E+00
(PID.TID 0000.0001)                    cg2d_init_res =    1.82629977678104E-01
(PID.TID 0000.0001)                       cg2d_iters =    62
(PID.TID 0000.0001)                         cg2d_res =    5.28614543684294E-07
(PID.TID 0000.0001) // =======================================================
(PID.TID 0000.0001) // Begin MONITOR dynamic field statistics
(PID.TID 0000.0001) // =======================================================
(PID.TID 0000.0001) %MON time_tsnumber                =                 72010
(PID.TID 0000.0001) %MON time_secondsf                =   6.2216640000000E+09
(PID.TID 0000.0001) %MON dynstat_eta_max              =   9.0461494471068E-01
(PID.TID 0000.0001) %MON dynstat_eta_min              =  -1.6110797011325E+00
(PID.TID 0000.0001) %MON dynstat_eta_mean             =   5.1482749359339E-13
(PID.TID 0000.0001) %MON dynstat_eta_sd               =   5.9747133236939E-01
(PID.TID 0000.0001) %MON dynstat_eta_del2             =   1.1234141583105E-02
(PID.TID 0000.0001) %MON dynstat_uvel_max             =   1.8625920147975E-01
(PID.TID 0000.0001) %MON dynstat_uvel_min             =  -2.8515078104219E-01
(PID.TID 0000.0001) %MON dynstat_uvel_mean            =  -4.8769158920304E-04
(PID.TID 0000.0001) %MON dynstat_uvel_sd              =   1.2021294140900E-02
(PID.TID 0000.0001) %MON dynstat_uvel_del2            =   1.5692808122311E-03
(PID.TID 0000.0001) %MON dynstat_vvel_max             =   1.7454612585823E-01
(PID.TID 0000.0001) %MON dynstat_vvel_min             =  -2.2452880574678E-01
(PID.TID 0000.0001) %MON dynstat_vvel_mean            =  -4.0345173647902E-04
(PID.TID 0000.0001) %MON dynstat_vvel_sd              =   1.2670058061594E-02
(PID.TID 0000.0001) %MON dynstat_vvel_del2            =   1.5914395790693E-03
(PID.TID 0000.0001) %MON dynstat_wvel_max             =   1.0640345365640E-04
(PID.TID 0000.0001) %MON dynstat_wvel_min             =  -2.0579824776481E-04
(PID.TID 0000.0001) %MON dynstat_wvel_mean            =   8.4230299709292E-11
(PID.TID 0000.0001) %MON dynstat_wvel_sd              =   3.8965506539853E-06
(PID.TID 0000.0001) %MON dynstat_wvel_del2            =   8.5844940353535E-07
(PID.TID 0000.0001) %MON dynstat_theta_max            =   3.1055923837759E+01
(PID.TID 0000.0001) %MON dynstat_theta_min            =  -2.1678262380061E+00
(PID.TID 0000.0001) %MON dynstat_theta_mean           =   3.9283410732184E+00
(PID.TID 0000.0001) %MON dynstat_theta_sd             =   4.5741630696530E+00
(PID.TID 0000.0001) %MON dynstat_theta_del2           =   8.7971020474937E-02
(PID.TID 0000.0001) %MON dynstat_salt_max             =   4.1413491082265E+01
(PID.TID 0000.0001) %MON dynstat_salt_min             =   1.8391256394152E+01
(PID.TID 0000.0001) %MON dynstat_salt_mean            =   3.4775236131200E+01
(PID.TID 0000.0001) %MON dynstat_salt_sd              =   5.3476275836107E-01
(PID.TID 0000.0001) %MON dynstat_salt_del2            =   1.8956855399523E-02
(PID.TID 0000.0001) %MON advcfl_uvel_max              =   8.0874170439339E-02
(PID.TID 0000.0001) %MON advcfl_vvel_max              =   7.6082197218394E-02
(PID.TID 0000.0001) %MON advcfl_wvel_max              =   6.7097994742942E-02
(PID.TID 0000.0001) %MON advcfl_W_hf_max              =   1.1467902849185E-01
(PID.TID 0000.0001) %MON pe_b_mean                    =   4.7555266170916E-04
(PID.TID 0000.0001) %MON ke_max                       =   3.9583048951282E-02
(PID.TID 0000.0001) %MON ke_mean                      =   1.4105023190677E-04
(PID.TID 0000.0001) %MON ke_vol                       =   1.3398024453628E+18
(PID.TID 0000.0001) %MON vort_r_min                   =  -1.2321282337014E-06
(PID.TID 0000.0001) %MON vort_r_max                   =   1.2300849945096E-06
(PID.TID 0000.0001) %MON vort_a_mean                  =  -2.0493733748264E-05
(PID.TID 0000.0001) %MON vort_a_sd                    =   7.5053945582297E-05
(PID.TID 0000.0001) %MON vort_p_mean                  =  -2.4715567347130E-05
(PID.TID 0000.0001) %MON vort_p_sd                    =   1.2775773917570E-04
(PID.TID 0000.0001) %MON surfExpan_theta_mean         =   4.9373618388387E-08
(PID.TID 0000.0001) %MON surfExpan_salt_mean          =   1.5198517445781E-08
(PID.TID 0000.0001) // =======================================================
(PID.TID 0000.0001) // End MONITOR dynamic field statistics
(PID.TID 0000.0001) // =======================================================
 cg2d: Sum(rhs),rhsMax =  -3.46058182110198E-10  4.23761362892510E+00
(PID.TID 0000.0001)                    cg2d_init_res =    1.86781502657771E-01
(PID.TID 0000.0001)                       cg2d_iters =    62
(PID.TID 0000.0001)                         cg2d_res =    5.37064902516531E-07
(PID.TID 0000.0001) // =======================================================
(PID.TID 0000.0001) // Begin MONITOR dynamic field statistics
(PID.TID 0000.0001) // =======================================================
(PID.TID 0000.0001) %MON time_tsnumber                =                 72011
(PID.TID 0000.0001) %MON time_secondsf                =   6.2217504000000E+09
(PID.TID 0000.0001) %MON dynstat_eta_max              =   9.0325162352100E-01
(PID.TID 0000.0001) %MON dynstat_eta_min              =  -1.6105650485175E+00
(PID.TID 0000.0001) %MON dynstat_eta_mean             =   5.1484245211007E-13
(PID.TID 0000.0001) %MON dynstat_eta_sd               =   5.9737544842030E-01
(PID.TID 0000.0001) %MON dynstat_eta_del2             =   1.1234698925322E-02
(PID.TID 0000.0001) %MON dynstat_uvel_max             =   1.8601034374749E-01
(PID.TID 0000.0001) %MON dynstat_uvel_min             =  -2.8474931807464E-01
(PID.TID 0000.0001) %MON dynstat_uvel_mean            =  -4.8711696493856E-04
(PID.TID 0000.0001) %MON dynstat_uvel_sd              =   1.2021019672841E-02
(PID.TID 0000.0001) %MON dynstat_uvel_del2            =   1.5688692552930E-03
(PID.TID 0000.0001) %MON dynstat_vvel_max             =   1.7451810827519E-01
(PID.TID 0000.0001) %MON dynstat_vvel_min             =  -2.2442804592889E-01
(PID.TID 0000.0001) %MON dynstat_vvel_mean            =  -4.0308608338949E-04
(PID.TID 0000.0001) %MON dynstat_vvel_sd              =   1.2670788575477E-02
(PID.TID 0000.0001) %MON dynstat_vvel_del2            =   1.5910637201005E-03
(PID.TID 0000.0001) %MON dynstat_wvel_max             =   1.0688903246134E-04
(PID.TID 0000.0001) %MON dynstat_wvel_min             =  -2.0557427025714E-04
(PID.TID 0000.0001) %MON dynstat_wvel_mean            =   7.5143114839251E-11
(PID.TID 0000.0001) %MON dynstat_wvel_sd              =   3.8936183869678E-06
(PID.TID 0000.0001) %MON dynstat_wvel_del2            =   8.5798608557781E-07
(PID.TID 0000.0001) %MON dynstat_theta_max            =   3.1066700369084E+01
(PID.TID 0000.0001) %MON dynstat_theta_min            =  -2.1968410958265E+00
(PID.TID 0000.0001) %MON dynstat_theta_mean           =   3.9283995486124E+00
(PID.TID 0000.0001) %MON dynstat_theta_sd             =   4.5742416270357E+00
(PID.TID 0000.0001) %MON dynstat_theta_del2           =   8.7969622776171E-02
(PID.TID 0000.0001) %MON dynstat_salt_max             =   4.1410443452414E+01
(PID.TID 0000.0001) %MON dynstat_salt_min             =   1.8391606235630E+01
(PID.TID 0000.0001) %MON dynstat_salt_mean            =   3.4775236694562E+01
(PID.TID 0000.0001) %MON dynstat_salt_sd              =   5.3475961154889E-01
(PID.TID 0000.0001) %MON dynstat_salt_del2            =   1.8956774764748E-02
(PID.TID 0000.0001) %MON advcfl_uvel_max              =   8.0760307926517E-02
(PID.TID 0000.0001) %MON advcfl_vvel_max              =   7.6069984748667E-02
(PID.TID 0000.0001) %MON advcfl_wvel_max              =   6.7024969623459E-02
(PID.TID 0000.0001) %MON advcfl_W_hf_max              =   1.1354300729587E-01
(PID.TID 0000.0001) %MON pe_b_mean                    =   4.7540003778934E-04
(PID.TID 0000.0001) %MON ke_max                       =   3.9450301935186E-02
(PID.TID 0000.0001) %MON ke_mean                      =   1.4105540607179E-04
(PID.TID 0000.0001) %MON ke_vol                       =   1.3398024453628E+18
(PID.TID 0000.0001) %MON vort_r_min                   =  -1.2377552644630E-06
(PID.TID 0000.0001) %MON vort_r_max                   =   1.2324302259597E-06
(PID.TID 0000.0001) %MON vort_a_mean                  =  -2.0493733748264E-05
(PID.TID 0000.0001) %MON vort_a_sd                    =   7.5053945495815E-05
(PID.TID 0000.0001) %MON vort_p_mean                  =  -2.4715567597885E-05
(PID.TID 0000.0001) %MON vort_p_sd                    =   1.2775773820236E-04
(PID.TID 0000.0001) %MON surfExpan_theta_mean         =   4.9422504044392E-08
(PID.TID 0000.0001) %MON surfExpan_salt_mean          =   1.5259942343068E-08
(PID.TID 0000.0001) // =======================================================
(PID.TID 0000.0001) // End MONITOR dynamic field statistics
(PID.TID 0000.0001) // =======================================================
 cg2d: Sum(rhs),rhsMax =  -3.46112805083010E-10  4.23653758638002E+00
(PID.TID 0000.0001)                    cg2d_init_res =    1.58177220222667E-01
(PID.TID 0000.0001)                       cg2d_iters =    62
(PID.TID 0000.0001)                         cg2d_res =    4.82874597523196E-07
(PID.TID 0000.0001) // =======================================================
(PID.TID 0000.0001) // Begin MONITOR dynamic field statistics
(PID.TID 0000.0001) // =======================================================
(PID.TID 0000.0001) %MON time_tsnumber                =                 72012
(PID.TID 0000.0001) %MON time_secondsf                =   6.2218368000000E+09
(PID.TID 0000.0001) %MON dynstat_eta_max              =   9.0192647465118E-01
(PID.TID 0000.0001) %MON dynstat_eta_min              =  -1.6100415981444E+00
(PID.TID 0000.0001) %MON dynstat_eta_mean             =   5.1464936116736E-13
(PID.TID 0000.0001) %MON dynstat_eta_sd               =   5.9728104731072E-01
(PID.TID 0000.0001) %MON dynstat_eta_del2             =   1.1235595751534E-02
(PID.TID 0000.0001) %MON dynstat_uvel_max             =   1.8570494398042E-01
(PID.TID 0000.0001) %MON dynstat_uvel_min             =  -2.8433226741251E-01
(PID.TID 0000.0001) %MON dynstat_uvel_mean            =  -4.8652850425321E-04
(PID.TID 0000.0001) %MON dynstat_uvel_sd              =   1.2020955404180E-02
(PID.TID 0000.0001) %MON dynstat_uvel_del2            =   1.5683820004682E-03
(PID.TID 0000.0001) %MON dynstat_vvel_max             =   1.7445397889672E-01
(PID.TID 0000.0001) %MON dynstat_vvel_min             =  -2.2432314048761E-01
(PID.TID 0000.0001) %MON dynstat_vvel_mean            =  -4.0270922523973E-04
(PID.TID 0000.0001) %MON dynstat_vvel_sd              =   1.2671048749318E-02
(PID.TID 0000.0001) %MON dynstat_vvel_del2            =   1.5907816725980E-03
(PID.TID 0000.0001) %MON dynstat_wvel_max             =   1.0738296982363E-04
(PID.TID 0000.0001) %MON dynstat_wvel_min             =  -2.0530349884746E-04
(PID.TID 0000.0001) %MON dynstat_wvel_mean            =   6.4702914738637E-11
(PID.TID 0000.0001) %MON dynstat_wvel_sd              =   3.8908443409758E-06
(PID.TID 0000.0001) %MON dynstat_wvel_del2            =   8.5787792807482E-07
(PID.TID 0000.0001) %MON dynstat_theta_max            =   3.1077090757110E+01
(PID.TID 0000.0001) %MON dynstat_theta_min            =  -2.2258751576450E+00
(PID.TID 0000.0001) %MON dynstat_theta_mean           =   3.9284580972335E+00
(PID.TID 0000.0001) %MON dynstat_theta_sd             =   4.5743253887066E+00
(PID.TID 0000.0001) %MON dynstat_theta_del2           =   8.8006756288802E-02
(PID.TID 0000.0001) %MON dynstat_salt_max             =   4.1407402375792E+01
(PID.TID 0000.0001) %MON dynstat_salt_min             =   1.8391961857095E+01
(PID.TID 0000.0001) %MON dynstat_salt_mean            =   3.4775237276182E+01
(PID.TID 0000.0001) %MON dynstat_salt_sd              =   5.3475550926374E-01
(PID.TID 0000.0001) %MON dynstat_salt_del2            =   1.8960155175146E-02
(PID.TID 0000.0001) %MON advcfl_uvel_max              =   8.0642024447834E-02
(PID.TID 0000.0001) %MON advcfl_vvel_max              =   7.6042031656058E-02
(PID.TID 0000.0001) %MON advcfl_wvel_max              =   6.6936687926115E-02
(PID.TID 0000.0001) %MON advcfl_W_hf_max              =   1.1289837127562E-01
(PID.TID 0000.0001) %MON pe_b_mean                    =   4.7524979811945E-04
(PID.TID 0000.0001) %MON ke_max                       =   3.9314591783745E-02
(PID.TID 0000.0001) %MON ke_mean                      =   1.4105736351269E-04
(PID.TID 0000.0001) %MON ke_vol                       =   1.3398024453628E+18
(PID.TID 0000.0001) %MON vort_r_min                   =  -1.2434117894305E-06
(PID.TID 0000.0001) %MON vort_r_max                   =   1.2347323535276E-06
(PID.TID 0000.0001) %MON vort_a_mean                  =  -2.0493733748263E-05
(PID.TID 0000.0001) %MON vort_a_sd                    =   7.5053945411373E-05
(PID.TID 0000.0001) %MON vort_p_mean                  =  -2.4715567843312E-05
(PID.TID 0000.0001) %MON vort_p_sd                    =   1.2775773722749E-04
(PID.TID 0000.0001) %MON surfExpan_theta_mean         =   4.9426839600585E-08
(PID.TID 0000.0001) %MON surfExpan_salt_mean          =   1.5308674952010E-08
(PID.TID 0000.0001) // =======================================================
(PID.TID 0000.0001) // End MONITOR dynamic field statistics
(PID.TID 0000.0001) // =======================================================
 cg2d: Sum(rhs),rhsMax =  -3.46109696458541E-10  4.23557857857229E+00
(PID.TID 0000.0001)                    cg2d_init_res =    1.55953730651101E-01
(PID.TID 0000.0001)                       cg2d_iters =    62
(PID.TID 0000.0001)                         cg2d_res =    4.82615945693828E-07
(PID.TID 0000.0001) // =======================================================
(PID.TID 0000.0001) // Begin MONITOR dynamic field statistics
(PID.TID 0000.0001) // =======================================================
(PID.TID 0000.0001) %MON time_tsnumber                =                 72013
(PID.TID 0000.0001) %MON time_secondsf                =   6.2219232000000E+09
(PID.TID 0000.0001) %MON dynstat_eta_max              =   9.0063775011920E-01
(PID.TID 0000.0001) %MON dynstat_eta_min              =  -1.6095098905953E+00
(PID.TID 0000.0001) %MON dynstat_eta_mean             =   5.1480071253053E-13
(PID.TID 0000.0001) %MON dynstat_eta_sd               =   5.9718945522189E-01
(PID.TID 0000.0001) %MON dynstat_eta_del2             =   1.1237390083768E-02
(PID.TID 0000.0001) %MON dynstat_uvel_max             =   1.8534780492409E-01
(PID.TID 0000.0001) %MON dynstat_uvel_min             =  -2.8389944977337E-01
(PID.TID 0000.0001) %MON dynstat_uvel_mean            =  -4.8592332084676E-04
(PID.TID 0000.0001) %MON dynstat_uvel_sd              =   1.2021097741176E-02
(PID.TID 0000.0001) %MON dynstat_uvel_del2            =   1.5678672056445E-03
(PID.TID 0000.0001) %MON dynstat_vvel_max             =   1.7435347705410E-01
(PID.TID 0000.0001) %MON dynstat_vvel_min             =  -2.2421449518131E-01
(PID.TID 0000.0001) %MON dynstat_vvel_mean            =  -4.0232308873847E-04
(PID.TID 0000.0001) %MON dynstat_vvel_sd              =   1.2670846458696E-02
(PID.TID 0000.0001) %MON dynstat_vvel_del2            =   1.5905708253745E-03
(PID.TID 0000.0001) %MON dynstat_wvel_max             =   1.0786699905351E-04
(PID.TID 0000.0001) %MON dynstat_wvel_min             =  -2.0498613560553E-04
(PID.TID 0000.0001) %MON dynstat_wvel_mean            =   5.6418939967703E-11
(PID.TID 0000.0001) %MON dynstat_wvel_sd              =   3.8881981669278E-06
(PID.TID 0000.0001) %MON dynstat_wvel_del2            =   8.5779437596298E-07
(PID.TID 0000.0001) %MON dynstat_theta_max            =   3.1087105417589E+01
(PID.TID 0000.0001) %MON dynstat_theta_min            =  -2.2548957982676E+00
(PID.TID 0000.0001) %MON dynstat_theta_mean           =   3.9285168046196E+00
(PID.TID 0000.0001) %MON dynstat_theta_sd             =   4.5744154401276E+00
(PID.TID 0000.0001) %MON dynstat_theta_del2           =   8.8012975396831E-02
(PID.TID 0000.0001) %MON dynstat_salt_max             =   4.1404367562554E+01
(PID.TID 0000.0001) %MON dynstat_salt_min             =   1.8392323233388E+01
(PID.TID 0000.0001) %MON dynstat_salt_mean            =   3.4775237878404E+01
(PID.TID 0000.0001) %MON dynstat_salt_sd              =   5.3475151028911E-01
(PID.TID 0000.0001) %MON dynstat_salt_del2            =   1.8956403035303E-02
(PID.TID 0000.0001) %MON advcfl_uvel_max              =   8.0519269155393E-02
(PID.TID 0000.0001) %MON advcfl_vvel_max              =   7.5998224318750E-02
(PID.TID 0000.0001) %MON advcfl_wvel_max              =   6.6833215533273E-02
(PID.TID 0000.0001) %MON advcfl_W_hf_max              =   1.1273988675916E-01
(PID.TID 0000.0001) %MON pe_b_mean                    =   4.7510405170958E-04
(PID.TID 0000.0001) %MON ke_max                       =   3.9175940635034E-02
(PID.TID 0000.0001) %MON ke_mean                      =   1.4105615594101E-04
(PID.TID 0000.0001) %MON ke_vol                       =   1.3398024453628E+18
(PID.TID 0000.0001) %MON vort_r_min                   =  -1.2490689406151E-06
(PID.TID 0000.0001) %MON vort_r_max                   =   1.2369308409171E-06
(PID.TID 0000.0001) %MON vort_a_mean                  =  -2.0493733748264E-05
(PID.TID 0000.0001) %MON vort_a_sd                    =   7.5053945329367E-05
(PID.TID 0000.0001) %MON vort_p_mean                  =  -2.4715568086170E-05
(PID.TID 0000.0001) %MON vort_p_sd                    =   1.2775773624703E-04
(PID.TID 0000.0001) %MON surfExpan_theta_mean         =   4.9463329651514E-08
(PID.TID 0000.0001) %MON surfExpan_salt_mean          =   1.5350228049658E-08
(PID.TID 0000.0001) // =======================================================
(PID.TID 0000.0001) // End MONITOR dynamic field statistics
(PID.TID 0000.0001) // =======================================================
 cg2d: Sum(rhs),rhsMax =  -3.46115303084815E-10  4.23470964376134E+00
(PID.TID 0000.0001)                    cg2d_init_res =    1.57763093746439E-01
(PID.TID 0000.0001)                       cg2d_iters =    62
(PID.TID 0000.0001)                         cg2d_res =    4.96845610517827E-07
(PID.TID 0000.0001) // =======================================================
(PID.TID 0000.0001) // Begin MONITOR dynamic field statistics
(PID.TID 0000.0001) // =======================================================
(PID.TID 0000.0001) %MON time_tsnumber                =                 72014
(PID.TID 0000.0001) %MON time_secondsf                =   6.2220096000000E+09
(PID.TID 0000.0001) %MON dynstat_eta_max              =   8.9938394656590E-01
(PID.TID 0000.0001) %MON dynstat_eta_min              =  -1.6089707072107E+00
(PID.TID 0000.0001) %MON dynstat_eta_mean             =   5.1471368129655E-13
(PID.TID 0000.0001) %MON dynstat_eta_sd               =   5.9710110989891E-01
(PID.TID 0000.0001) %MON dynstat_eta_del2             =   1.1239698955627E-02
(PID.TID 0000.0001) %MON dynstat_uvel_max             =   1.8494436871637E-01
(PID.TID 0000.0001) %MON dynstat_uvel_min             =  -2.8345068314444E-01
(PID.TID 0000.0001) %MON dynstat_uvel_mean            =  -4.8530459058474E-04
(PID.TID 0000.0001) %MON dynstat_uvel_sd              =   1.2021430536143E-02
(PID.TID 0000.0001) %MON dynstat_uvel_del2            =   1.5675251877362E-03
(PID.TID 0000.0001) %MON dynstat_vvel_max             =   1.7421665631273E-01
(PID.TID 0000.0001) %MON dynstat_vvel_min             =  -2.2410249637326E-01
(PID.TID 0000.0001) %MON dynstat_vvel_mean            =  -4.0192663770671E-04
(PID.TID 0000.0001) %MON dynstat_vvel_sd              =   1.2670204700424E-02
(PID.TID 0000.0001) %MON dynstat_vvel_del2            =   1.5904324322726E-03
(PID.TID 0000.0001) %MON dynstat_wvel_max             =   1.0833365028748E-04
(PID.TID 0000.0001) %MON dynstat_wvel_min             =  -2.0462745284446E-04
(PID.TID 0000.0001) %MON dynstat_wvel_mean            =   4.7999505052156E-11
(PID.TID 0000.0001) %MON dynstat_wvel_sd              =   3.8856666483633E-06
(PID.TID 0000.0001) %MON dynstat_wvel_del2            =   8.5771568743403E-07
(PID.TID 0000.0001) %MON dynstat_theta_max            =   3.1096753921182E+01
(PID.TID 0000.0001) %MON dynstat_theta_min            =  -2.2838881713617E+00
(PID.TID 0000.0001) %MON dynstat_theta_mean           =   3.9285756298697E+00
(PID.TID 0000.0001) %MON dynstat_theta_sd             =   4.5745107137890E+00
(PID.TID 0000.0001) %MON dynstat_theta_del2           =   8.8014040894773E-02
(PID.TID 0000.0001) %MON dynstat_salt_max             =   4.1401339001436E+01
(PID.TID 0000.0001) %MON dynstat_salt_min             =   1.8392690360237E+01
(PID.TID 0000.0001) %MON dynstat_salt_mean            =   3.4775238500234E+01
(PID.TID 0000.0001) %MON dynstat_salt_sd              =   5.3474677578395E-01
(PID.TID 0000.0001) %MON dynstat_salt_del2            =   1.8947149507977E-02
(PID.TID 0000.0001) %MON advcfl_uvel_max              =   8.0391990426914E-02
(PID.TID 0000.0001) %MON advcfl_vvel_max              =   7.5938586085151E-02
(PID.TID 0000.0001) %MON advcfl_wvel_max              =   6.6716271417968E-02
(PID.TID 0000.0001) %MON advcfl_W_hf_max              =   1.1251863144654E-01
(PID.TID 0000.0001) %MON pe_b_mean                    =   4.7496349291078E-04
(PID.TID 0000.0001) %MON ke_max                       =   3.9034361174875E-02
(PID.TID 0000.0001) %MON ke_mean                      =   1.4105187654378E-04
(PID.TID 0000.0001) %MON ke_vol                       =   1.3398024453628E+18
(PID.TID 0000.0001) %MON vort_r_min                   =  -1.2546991355455E-06
(PID.TID 0000.0001) %MON vort_r_max                   =   1.2390157001088E-06
(PID.TID 0000.0001) %MON vort_a_mean                  =  -2.0493733748263E-05
(PID.TID 0000.0001) %MON vort_a_sd                    =   7.5053945249740E-05
(PID.TID 0000.0001) %MON vort_p_mean                  =  -2.4715568322139E-05
(PID.TID 0000.0001) %MON vort_p_sd                    =   1.2775773521489E-04
(PID.TID 0000.0001) %MON surfExpan_theta_mean         =   4.9494638599317E-08
(PID.TID 0000.0001) %MON surfExpan_salt_mean          =   1.5378570856650E-08
(PID.TID 0000.0001) // =======================================================
(PID.TID 0000.0001) // End MONITOR dynamic field statistics
(PID.TID 0000.0001) // =======================================================
 cg2d: Sum(rhs),rhsMax =  -3.46010331497837E-10  4.23390176959260E+00
(PID.TID 0000.0001)                    cg2d_init_res =    1.55686762901663E-01
(PID.TID 0000.0001)                       cg2d_iters =    62
(PID.TID 0000.0001)                         cg2d_res =    4.88684870796502E-07
(PID.TID 0000.0001) // =======================================================
(PID.TID 0000.0001) // Begin MONITOR dynamic field statistics
(PID.TID 0000.0001) // =======================================================
(PID.TID 0000.0001) %MON time_tsnumber                =                 72015
(PID.TID 0000.0001) %MON time_secondsf                =   6.2220960000000E+09
(PID.TID 0000.0001) %MON dynstat_eta_max              =   8.9815377060916E-01
(PID.TID 0000.0001) %MON dynstat_eta_min              =  -1.6084250050810E+00
(PID.TID 0000.0001) %MON dynstat_eta_mean             =   5.1463530476931E-13
(PID.TID 0000.0001) %MON dynstat_eta_sd               =   5.9701645085546E-01
(PID.TID 0000.0001) %MON dynstat_eta_del2             =   1.1242311535153E-02
(PID.TID 0000.0001) %MON dynstat_uvel_max             =   1.8450062179603E-01
(PID.TID 0000.0001) %MON dynstat_uvel_min             =  -2.8298579741443E-01
(PID.TID 0000.0001) %MON dynstat_uvel_mean            =  -4.8467631409643E-04
(PID.TID 0000.0001) %MON dynstat_uvel_sd              =   1.2021925067175E-02
(PID.TID 0000.0001) %MON dynstat_uvel_del2            =   1.5673854085594E-03
(PID.TID 0000.0001) %MON dynstat_vvel_max             =   1.7404393347457E-01
(PID.TID 0000.0001) %MON dynstat_vvel_min             =  -2.2398750814791E-01
(PID.TID 0000.0001) %MON dynstat_vvel_mean            =  -4.0151866547165E-04
(PID.TID 0000.0001) %MON dynstat_vvel_sd              =   1.2669160219915E-02
(PID.TID 0000.0001) %MON dynstat_vvel_del2            =   1.5903335482078E-03
(PID.TID 0000.0001) %MON dynstat_wvel_max             =   1.0878428089897E-04
(PID.TID 0000.0001) %MON dynstat_wvel_min             =  -2.0423599568631E-04
(PID.TID 0000.0001) %MON dynstat_wvel_mean            =   4.0913510971945E-11
(PID.TID 0000.0001) %MON dynstat_wvel_sd              =   3.8832347109369E-06
(PID.TID 0000.0001) %MON dynstat_wvel_del2            =   8.5767591323395E-07
(PID.TID 0000.0001) %MON dynstat_theta_max            =   3.1106045004028E+01
(PID.TID 0000.0001) %MON dynstat_theta_min            =  -2.3128187840653E+00
(PID.TID 0000.0001) %MON dynstat_theta_mean           =   3.9286345951699E+00
(PID.TID 0000.0001) %MON dynstat_theta_sd             =   4.5746116762522E+00
(PID.TID 0000.0001) %MON dynstat_theta_del2           =   8.7977458582757E-02
(PID.TID 0000.0001) %MON dynstat_salt_max             =   4.1398316843095E+01
(PID.TID 0000.0001) %MON dynstat_salt_min             =   1.8393063255149E+01
(PID.TID 0000.0001) %MON dynstat_salt_mean            =   3.4775239142744E+01
(PID.TID 0000.0001) %MON dynstat_salt_sd              =   5.3474192229363E-01
(PID.TID 0000.0001) %MON dynstat_salt_del2            =   1.8931939789406E-02
(PID.TID 0000.0001) %MON advcfl_uvel_max              =   8.0260140015613E-02
(PID.TID 0000.0001) %MON advcfl_vvel_max              =   7.5863298633350E-02
(PID.TID 0000.0001) %MON advcfl_wvel_max              =   6.6588641612444E-02
(PID.TID 0000.0001) %MON advcfl_W_hf_max              =   1.1223517274150E-01
(PID.TID 0000.0001) %MON pe_b_mean                    =   4.7482881855240E-04
(PID.TID 0000.0001) %MON ke_max                       =   3.8889860928977E-02
(PID.TID 0000.0001) %MON ke_mean                      =   1.4104464211580E-04
(PID.TID 0000.0001) %MON ke_vol                       =   1.3398024453628E+18
(PID.TID 0000.0001) %MON vort_r_min                   =  -1.2602762962037E-06
(PID.TID 0000.0001) %MON vort_r_max                   =   1.2409274518240E-06
(PID.TID 0000.0001) %MON vort_a_mean                  =  -2.0493733748264E-05
(PID.TID 0000.0001) %MON vort_a_sd                    =   7.5053945171875E-05
(PID.TID 0000.0001) %MON vort_p_mean                  =  -2.4715568551405E-05
(PID.TID 0000.0001) %MON vort_p_sd                    =   1.2775773411024E-04
(PID.TID 0000.0001) %MON surfExpan_theta_mean         =   4.9543180983976E-08
(PID.TID 0000.0001) %MON surfExpan_salt_mean          =   1.5395266548314E-08
(PID.TID 0000.0001) // =======================================================
(PID.TID 0000.0001) // End MONITOR dynamic field statistics
(PID.TID 0000.0001) // =======================================================
 S/R EXTERNAL_FIELDS_LOAD: Reading new data  6.222096E+09 72015
(PID.TID 0000.0001)  MDSREADFIELD: opening global file: trenberth_taux.bin
(PID.TID 0000.0001)  MDSREADFIELD: opening global file: trenberth_taux.bin
(PID.TID 0000.0001)  MDSREADFIELD: opening global file: trenberth_tauy.bin
(PID.TID 0000.0001)  MDSREADFIELD: opening global file: trenberth_tauy.bin
(PID.TID 0000.0001)  MDSREADFIELD: opening global file: shiQnet_cs32.bin
(PID.TID 0000.0001)  MDSREADFIELD: opening global file: shiQnet_cs32.bin
(PID.TID 0000.0001)  MDSREADFIELD: opening global file: shiEmPR_cs32.bin
(PID.TID 0000.0001)  MDSREADFIELD: opening global file: shiEmPR_cs32.bin
(PID.TID 0000.0001)  MDSREADFIELD: opening global file: lev_surfT_cs_12m.bin
(PID.TID 0000.0001)  MDSREADFIELD: opening global file: lev_surfT_cs_12m.bin
(PID.TID 0000.0001)  MDSREADFIELD: opening global file: lev_surfS_cs_12m.bin
(PID.TID 0000.0001)  MDSREADFIELD: opening global file: lev_surfS_cs_12m.bin
 cg2d: Sum(rhs),rhsMax =  -3.46141393325894E-10  4.23312442287591E+00
(PID.TID 0000.0001)                    cg2d_init_res =    1.57570570613296E-01
(PID.TID 0000.0001)                       cg2d_iters =    62
(PID.TID 0000.0001)                         cg2d_res =    4.88492712587210E-07
(PID.TID 0000.0001) // =======================================================
(PID.TID 0000.0001) // Begin MONITOR dynamic field statistics
(PID.TID 0000.0001) // =======================================================
(PID.TID 0000.0001) %MON time_tsnumber                =                 72016
(PID.TID 0000.0001) %MON time_secondsf                =   6.2221824000000E+09
(PID.TID 0000.0001) %MON dynstat_eta_max              =   8.9695151870976E-01
(PID.TID 0000.0001) %MON dynstat_eta_min              =  -1.6078739518053E+00
(PID.TID 0000.0001) %MON dynstat_eta_mean             =   5.1477400346105E-13
(PID.TID 0000.0001) %MON dynstat_eta_sd               =   5.9693600869903E-01
(PID.TID 0000.0001) %MON dynstat_eta_del2             =   1.1245287833145E-02
(PID.TID 0000.0001) %MON dynstat_uvel_max             =   1.8402300161240E-01
(PID.TID 0000.0001) %MON dynstat_uvel_min             =  -2.8250464588809E-01
(PID.TID 0000.0001) %MON dynstat_uvel_mean            =  -4.8404013497301E-04
(PID.TID 0000.0001) %MON dynstat_uvel_sd              =   1.2022543412301E-02
(PID.TID 0000.0001) %MON dynstat_uvel_del2            =   1.5673393244531E-03
(PID.TID 0000.0001) %MON dynstat_vvel_max             =   1.7383620490996E-01
(PID.TID 0000.0001) %MON dynstat_vvel_min             =  -2.2386987227584E-01
(PID.TID 0000.0001) %MON dynstat_vvel_mean            =  -4.0109887618620E-04
(PID.TID 0000.0001) %MON dynstat_vvel_sd              =   1.2667760177405E-02
(PID.TID 0000.0001) %MON dynstat_vvel_del2            =   1.5901714317109E-03
(PID.TID 0000.0001) %MON dynstat_wvel_max             =   1.0920236260021E-04
(PID.TID 0000.0001) %MON dynstat_wvel_min             =  -2.0381355726637E-04
(PID.TID 0000.0001) %MON dynstat_wvel_mean            =   3.4175726442153E-11
(PID.TID 0000.0001) %MON dynstat_wvel_sd              =   3.8808285030048E-06
(PID.TID 0000.0001) %MON dynstat_wvel_del2            =   8.5764487616867E-07
(PID.TID 0000.0001) %MON dynstat_theta_max            =   3.1114986579810E+01
(PID.TID 0000.0001) %MON dynstat_theta_min            =  -2.3416833724184E+00
(PID.TID 0000.0001) %MON dynstat_theta_mean           =   3.9286936151920E+00
(PID.TID 0000.0001) %MON dynstat_theta_sd             =   4.5747160658066E+00
(PID.TID 0000.0001) %MON dynstat_theta_del2           =   8.7972486555383E-02
(PID.TID 0000.0001) %MON dynstat_salt_max             =   4.1395301444153E+01
(PID.TID 0000.0001) %MON dynstat_salt_min             =   1.8393441958678E+01
(PID.TID 0000.0001) %MON dynstat_salt_mean            =   3.4775239804356E+01
(PID.TID 0000.0001) %MON dynstat_salt_sd              =   5.3473541393818E-01
(PID.TID 0000.0001) %MON dynstat_salt_del2            =   1.8933508885343E-02
(PID.TID 0000.0001) %MON advcfl_uvel_max              =   8.0123676315930E-02
(PID.TID 0000.0001) %MON advcfl_vvel_max              =   7.5772752678562E-02
(PID.TID 0000.0001) %MON advcfl_wvel_max              =   6.6450910746469E-02
(PID.TID 0000.0001) %MON advcfl_W_hf_max              =   1.1189014756793E-01
(PID.TID 0000.0001) %MON pe_b_mean                    =   4.7470087004862E-04
(PID.TID 0000.0001) %MON ke_max                       =   3.8742445623071E-02
(PID.TID 0000.0001) %MON ke_mean                      =   1.4103458990939E-04
(PID.TID 0000.0001) %MON ke_vol                       =   1.3398024453628E+18
(PID.TID 0000.0001) %MON vort_r_min                   =  -1.2657760206123E-06
(PID.TID 0000.0001) %MON vort_r_max                   =   1.2426539595995E-06
(PID.TID 0000.0001) %MON vort_a_mean                  =  -2.0493733748263E-05
(PID.TID 0000.0001) %MON vort_a_sd                    =   7.5053945095393E-05
(PID.TID 0000.0001) %MON vort_p_mean                  =  -2.4715568775542E-05
(PID.TID 0000.0001) %MON vort_p_sd                    =   1.2775773291089E-04
(PID.TID 0000.0001) %MON surfExpan_theta_mean         =   4.9574113699022E-08
(PID.TID 0000.0001) %MON surfExpan_salt_mean          =   1.5392708961296E-08
(PID.TID 0000.0001) // =======================================================
(PID.TID 0000.0001) // End MONITOR dynamic field statistics
(PID.TID 0000.0001) // =======================================================
 cg2d: Sum(rhs),rhsMax =  -3.46093820269289E-10  4.23225142735136E+00
(PID.TID 0000.0001)                    cg2d_init_res =    1.64201916824098E-01
(PID.TID 0000.0001)                       cg2d_iters =    62
(PID.TID 0000.0001)                         cg2d_res =    4.95706877328531E-07
(PID.TID 0000.0001) // =======================================================
(PID.TID 0000.0001) // Begin MONITOR dynamic field statistics
(PID.TID 0000.0001) // =======================================================
(PID.TID 0000.0001) %MON time_tsnumber                =                 72017
(PID.TID 0000.0001) %MON time_secondsf                =   6.2222688000000E+09
(PID.TID 0000.0001) %MON dynstat_eta_max              =   8.9580247225713E-01
(PID.TID 0000.0001) %MON dynstat_eta_min              =  -1.6072618442149E+00
(PID.TID 0000.0001) %MON dynstat_eta_mean             =   5.1475369247167E-13
(PID.TID 0000.0001) %MON dynstat_eta_sd               =   5.9685671715537E-01
(PID.TID 0000.0001) %MON dynstat_eta_del2             =   1.1246736237723E-02
(PID.TID 0000.0001) %MON dynstat_uvel_max             =   1.8392035532082E-01
(PID.TID 0000.0001) %MON dynstat_uvel_min             =  -2.8201149779777E-01
(PID.TID 0000.0001) %MON dynstat_uvel_mean            =  -4.8343065640080E-04
(PID.TID 0000.0001) %MON dynstat_uvel_sd              =   1.2023277987783E-02
(PID.TID 0000.0001) %MON dynstat_uvel_del2            =   1.5673167711062E-03
(PID.TID 0000.0001) %MON dynstat_vvel_max             =   1.7359452695633E-01
(PID.TID 0000.0001) %MON dynstat_vvel_min             =  -2.2374274250398E-01
(PID.TID 0000.0001) %MON dynstat_vvel_mean            =  -4.0068612117854E-04
(PID.TID 0000.0001) %MON dynstat_vvel_sd              =   1.2665595311171E-02
(PID.TID 0000.0001) %MON dynstat_vvel_del2            =   1.5899913389398E-03
(PID.TID 0000.0001) %MON dynstat_wvel_max             =   1.0958489257702E-04
(PID.TID 0000.0001) %MON dynstat_wvel_min             =  -2.0335956583912E-04
(PID.TID 0000.0001) %MON dynstat_wvel_mean            =   1.7407522525213E-11
(PID.TID 0000.0001) %MON dynstat_wvel_sd              =   3.8783989223669E-06
(PID.TID 0000.0001) %MON dynstat_wvel_del2            =   8.5761403355127E-07
(PID.TID 0000.0001) %MON dynstat_theta_max            =   3.1123402235610E+01
(PID.TID 0000.0001) %MON dynstat_theta_min            =  -2.3704429554044E+00
(PID.TID 0000.0001) %MON dynstat_theta_mean           =   3.9287532147171E+00
(PID.TID 0000.0001) %MON dynstat_theta_sd             =   4.5748315812783E+00
(PID.TID 0000.0001) %MON dynstat_theta_del2           =   8.7995027929987E-02
(PID.TID 0000.0001) %MON dynstat_salt_max             =   4.1392313104927E+01
(PID.TID 0000.0001) %MON dynstat_salt_min             =   1.8393823061146E+01
(PID.TID 0000.0001) %MON dynstat_salt_mean            =   3.4775240486912E+01
(PID.TID 0000.0001) %MON dynstat_salt_sd              =   5.3472961450076E-01
(PID.TID 0000.0001) %MON dynstat_salt_del2            =   1.8947050777730E-02
(PID.TID 0000.0001) %MON advcfl_uvel_max              =   7.9983810163144E-02
(PID.TID 0000.0001) %MON advcfl_vvel_max              =   7.5667408663388E-02
(PID.TID 0000.0001) %MON advcfl_wvel_max              =   6.6302892409435E-02
(PID.TID 0000.0001) %MON advcfl_W_hf_max              =   1.1148642835492E-01
(PID.TID 0000.0001) %MON pe_b_mean                    =   4.7457476854242E-04
(PID.TID 0000.0001) %MON ke_max                       =   3.8594702939148E-02
(PID.TID 0000.0001) %MON ke_mean                      =   1.4101684999979E-04
(PID.TID 0000.0001) %MON ke_vol                       =   1.3398024453628E+18
(PID.TID 0000.0001) %MON vort_r_min                   =  -1.2710031765249E-06
(PID.TID 0000.0001) %MON vort_r_max                   =   1.2439652319821E-06
(PID.TID 0000.0001) %MON vort_a_mean                  =  -2.0493733748264E-05
(PID.TID 0000.0001) %MON vort_a_sd                    =   7.5053945020229E-05
(PID.TID 0000.0001) %MON vort_p_mean                  =  -2.4715568993915E-05
(PID.TID 0000.0001) %MON vort_p_sd                    =   1.2775773164508E-04
(PID.TID 0000.0001) %MON surfExpan_theta_mean         =   4.9572080343827E-08
(PID.TID 0000.0001) %MON surfExpan_salt_mean          =   1.5405559287202E-08
(PID.TID 0000.0001) // =======================================================
(PID.TID 0000.0001) // End MONITOR dynamic field statistics
(PID.TID 0000.0001) // =======================================================
 cg2d: Sum(rhs),rhsMax =  -3.46082107416379E-10  4.23145544843245E+00
(PID.TID 0000.0001)                    cg2d_init_res =    1.70090372992929E-01
(PID.TID 0000.0001)                       cg2d_iters =    62
(PID.TID 0000.0001)                         cg2d_res =    4.99900072106691E-07
(PID.TID 0000.0001) // =======================================================
(PID.TID 0000.0001) // Begin MONITOR dynamic field statistics
(PID.TID 0000.0001) // =======================================================
(PID.TID 0000.0001) %MON time_tsnumber                =                 72018
(PID.TID 0000.0001) %MON time_secondsf                =   6.2223552000000E+09
(PID.TID 0000.0001) %MON dynstat_eta_max              =   8.9469772304608E-01
(PID.TID 0000.0001) %MON dynstat_eta_min              =  -1.6066509689242E+00
(PID.TID 0000.0001) %MON dynstat_eta_mean             =   5.1468888327502E-13
(PID.TID 0000.0001) %MON dynstat_eta_sd               =   5.9678165381942E-01
(PID.TID 0000.0001) %MON dynstat_eta_del2             =   1.1247876241328E-02
(PID.TID 0000.0001) %MON dynstat_uvel_max             =   1.8390690263782E-01
(PID.TID 0000.0001) %MON dynstat_uvel_min             =  -2.8150473086518E-01
(PID.TID 0000.0001) %MON dynstat_uvel_mean            =  -4.8285362708355E-04
(PID.TID 0000.0001) %MON dynstat_uvel_sd              =   1.2024046741882E-02
(PID.TID 0000.0001) %MON dynstat_uvel_del2            =   1.5673606469767E-03
(PID.TID 0000.0001) %MON dynstat_vvel_max             =   1.7332070824968E-01
(PID.TID 0000.0001) %MON dynstat_vvel_min             =  -2.2360933664606E-01
(PID.TID 0000.0001) %MON dynstat_vvel_mean            =  -4.0026974365139E-04
(PID.TID 0000.0001) %MON dynstat_vvel_sd              =   1.2662865377019E-02
(PID.TID 0000.0001) %MON dynstat_vvel_del2            =   1.5898038766600E-03
(PID.TID 0000.0001) %MON dynstat_wvel_max             =   1.0992294062572E-04
(PID.TID 0000.0001) %MON dynstat_wvel_min             =  -2.0288200762664E-04
(PID.TID 0000.0001) %MON dynstat_wvel_mean            =   4.7870554155821E-12
(PID.TID 0000.0001) %MON dynstat_wvel_sd              =   3.8758786392946E-06
(PID.TID 0000.0001) %MON dynstat_wvel_del2            =   8.5752664755191E-07
(PID.TID 0000.0001) %MON dynstat_theta_max            =   3.1131282453130E+01
(PID.TID 0000.0001) %MON dynstat_theta_min            =  -2.3991802436717E+00
(PID.TID 0000.0001) %MON dynstat_theta_mean           =   3.9288132286231E+00
(PID.TID 0000.0001) %MON dynstat_theta_sd             =   4.5749555194797E+00
(PID.TID 0000.0001) %MON dynstat_theta_del2           =   8.8043170843619E-02
(PID.TID 0000.0001) %MON dynstat_salt_max             =   4.1389342989863E+01
(PID.TID 0000.0001) %MON dynstat_salt_min             =   1.8394206191568E+01
(PID.TID 0000.0001) %MON dynstat_salt_mean            =   3.4775241184442E+01
(PID.TID 0000.0001) %MON dynstat_salt_sd              =   5.3472380105992E-01
(PID.TID 0000.0001) %MON dynstat_salt_del2            =   1.8963616364359E-02
(PID.TID 0000.0001) %MON advcfl_uvel_max              =   7.9840081448357E-02
(PID.TID 0000.0001) %MON advcfl_vvel_max              =   7.5548054946776E-02
(PID.TID 0000.0001) %MON advcfl_wvel_max              =   6.6147190411102E-02
(PID.TID 0000.0001) %MON advcfl_W_hf_max              =   1.1102335900012E-01
(PID.TID 0000.0001) %MON pe_b_mean                    =   4.7445540681221E-04
(PID.TID 0000.0001) %MON ke_max                       =   3.8445660630546E-02
(PID.TID 0000.0001) %MON ke_mean                      =   1.4099286656535E-04
(PID.TID 0000.0001) %MON ke_vol                       =   1.3398024453628E+18
(PID.TID 0000.0001) %MON vort_r_min                   =  -1.2760077616435E-06
(PID.TID 0000.0001) %MON vort_r_max                   =   1.2449315621999E-06
(PID.TID 0000.0001) %MON vort_a_mean                  =  -2.0493733748264E-05
(PID.TID 0000.0001) %MON vort_a_sd                    =   7.5053944951285E-05
(PID.TID 0000.0001) %MON vort_p_mean                  =  -2.4715569203097E-05
(PID.TID 0000.0001) %MON vort_p_sd                    =   1.2775773025709E-04
(PID.TID 0000.0001) %MON surfExpan_theta_mean         =   4.9540816632597E-08
(PID.TID 0000.0001) %MON surfExpan_salt_mean          =   1.5439898126530E-08
(PID.TID 0000.0001) // =======================================================
(PID.TID 0000.0001) // End MONITOR dynamic field statistics
(PID.TID 0000.0001) // =======================================================
 cg2d: Sum(rhs),rhsMax =  -3.46128514738808E-10  4.23061279498075E+00
(PID.TID 0000.0001)                    cg2d_init_res =    1.88463354389236E-01
(PID.TID 0000.0001)                       cg2d_iters =    62
(PID.TID 0000.0001)                         cg2d_res =    5.34303324964468E-07
(PID.TID 0000.0001) // =======================================================
(PID.TID 0000.0001) // Begin MONITOR dynamic field statistics
(PID.TID 0000.0001) // =======================================================
(PID.TID 0000.0001) %MON time_tsnumber                =                 72019
(PID.TID 0000.0001) %MON time_secondsf                =   6.2224416000000E+09
(PID.TID 0000.0001) %MON dynstat_eta_max              =   8.9362482860058E-01
(PID.TID 0000.0001) %MON dynstat_eta_min              =  -1.6060568851230E+00
(PID.TID 0000.0001) %MON dynstat_eta_mean             =   5.1468232007141E-13
(PID.TID 0000.0001) %MON dynstat_eta_sd               =   5.9671279161339E-01
(PID.TID 0000.0001) %MON dynstat_eta_del2             =   1.1250189898473E-02
(PID.TID 0000.0001) %MON dynstat_uvel_max             =   1.8382813969745E-01
(PID.TID 0000.0001) %MON dynstat_uvel_min             =  -2.8098426612452E-01
(PID.TID 0000.0001) %MON dynstat_uvel_mean            =  -4.8231691764224E-04
(PID.TID 0000.0001) %MON dynstat_uvel_sd              =   1.2024799651580E-02
(PID.TID 0000.0001) %MON dynstat_uvel_del2            =   1.5674263408510E-03
(PID.TID 0000.0001) %MON dynstat_vvel_max             =   1.7301709721100E-01
(PID.TID 0000.0001) %MON dynstat_vvel_min             =  -2.2347005143429E-01
(PID.TID 0000.0001) %MON dynstat_vvel_mean            =  -3.9983841908475E-04
(PID.TID 0000.0001) %MON dynstat_vvel_sd              =   1.2659647641265E-02
(PID.TID 0000.0001) %MON dynstat_vvel_del2            =   1.5896398427764E-03
(PID.TID 0000.0001) %MON dynstat_wvel_max             =   1.1021666792363E-04
(PID.TID 0000.0001) %MON dynstat_wvel_min             =  -2.0239019299174E-04
(PID.TID 0000.0001) %MON dynstat_wvel_mean            =  -3.1603621550931E-12
(PID.TID 0000.0001) %MON dynstat_wvel_sd              =   3.8732101369008E-06
(PID.TID 0000.0001) %MON dynstat_wvel_del2            =   8.5757290658988E-07
(PID.TID 0000.0001) %MON dynstat_theta_max            =   3.1138629883064E+01
(PID.TID 0000.0001) %MON dynstat_theta_min            =  -2.4278548073441E+00
(PID.TID 0000.0001) %MON dynstat_theta_mean           =   3.9288735451464E+00
(PID.TID 0000.0001) %MON dynstat_theta_sd             =   4.5750898271055E+00
(PID.TID 0000.0001) %MON dynstat_theta_del2           =   8.8141917937645E-02
(PID.TID 0000.0001) %MON dynstat_salt_max             =   4.1386394452296E+01
(PID.TID 0000.0001) %MON dynstat_salt_min             =   1.8394591230708E+01
(PID.TID 0000.0001) %MON dynstat_salt_mean            =   3.4775241896450E+01
(PID.TID 0000.0001) %MON dynstat_salt_sd              =   5.3471794350675E-01
(PID.TID 0000.0001) %MON dynstat_salt_del2            =   1.8978271184444E-02
(PID.TID 0000.0001) %MON advcfl_uvel_max              =   7.9692467775373E-02
(PID.TID 0000.0001) %MON advcfl_vvel_max              =   7.5415715172351E-02
(PID.TID 0000.0001) %MON advcfl_wvel_max              =   6.5986840281079E-02
(PID.TID 0000.0001) %MON advcfl_W_hf_max              =   1.1050152051096E-01
(PID.TID 0000.0001) %MON pe_b_mean                    =   4.7434591899280E-04
(PID.TID 0000.0001) %MON ke_max                       =   3.8295294299450E-02
(PID.TID 0000.0001) %MON ke_mean                      =   1.4096299803047E-04
(PID.TID 0000.0001) %MON ke_vol                       =   1.3398024453628E+18
(PID.TID 0000.0001) %MON vort_r_min                   =  -1.2807743870828E-06
(PID.TID 0000.0001) %MON vort_r_max                   =   1.2455288681071E-06
(PID.TID 0000.0001) %MON vort_a_mean                  =  -2.0493733748264E-05
(PID.TID 0000.0001) %MON vort_a_sd                    =   7.5053944890421E-05
(PID.TID 0000.0001) %MON vort_p_mean                  =  -2.4715569404000E-05
(PID.TID 0000.0001) %MON vort_p_sd                    =   1.2775772878106E-04
(PID.TID 0000.0001) %MON surfExpan_theta_mean         =   4.9556757884210E-08
(PID.TID 0000.0001) %MON surfExpan_salt_mean          =   1.5510269229800E-08
(PID.TID 0000.0001) // =======================================================
(PID.TID 0000.0001) // End MONITOR dynamic field statistics
(PID.TID 0000.0001) // =======================================================
 cg2d: Sum(rhs),rhsMax =  -3.46092154934752E-10  4.22968659123479E+00
(PID.TID 0000.0001)                    cg2d_init_res =    1.68356623066224E-01
(PID.TID 0000.0001)                       cg2d_iters =    62
(PID.TID 0000.0001)                         cg2d_res =    4.78557125623395E-07
(PID.TID 0000.0001) // =======================================================
(PID.TID 0000.0001) // Begin MONITOR dynamic field statistics
(PID.TID 0000.0001) // =======================================================
(PID.TID 0000.0001) %MON time_tsnumber                =                 72020
(PID.TID 0000.0001) %MON time_secondsf                =   6.2225280000000E+09
(PID.TID 0000.0001) %MON dynstat_eta_max              =   8.9258636131709E-01
(PID.TID 0000.0001) %MON dynstat_eta_min              =  -1.6054803047074E+00
(PID.TID 0000.0001) %MON dynstat_eta_mean             =   5.1481403287694E-13
(PID.TID 0000.0001) %MON dynstat_eta_sd               =   5.9665036952346E-01
(PID.TID 0000.0001) %MON dynstat_eta_del2             =   1.1252864431877E-02
(PID.TID 0000.0001) %MON dynstat_uvel_max             =   1.8368536028766E-01
(PID.TID 0000.0001) %MON dynstat_uvel_min             =  -2.8045009314656E-01
(PID.TID 0000.0001) %MON dynstat_uvel_mean            =  -4.8181216479652E-04
(PID.TID 0000.0001) %MON dynstat_uvel_sd              =   1.2025487795871E-02
(PID.TID 0000.0001) %MON dynstat_uvel_del2            =   1.5675815595491E-03
(PID.TID 0000.0001) %MON dynstat_vvel_max             =   1.7268639626700E-01
(PID.TID 0000.0001) %MON dynstat_vvel_min             =  -2.2332523992251E-01
(PID.TID 0000.0001) %MON dynstat_vvel_mean            =  -3.9939074789600E-04
(PID.TID 0000.0001) %MON dynstat_vvel_sd              =   1.2656021032630E-02
(PID.TID 0000.0001) %MON dynstat_vvel_del2            =   1.5895339277533E-03
(PID.TID 0000.0001) %MON dynstat_wvel_max             =   1.1045665421974E-04
(PID.TID 0000.0001) %MON dynstat_wvel_min             =  -2.0189036411747E-04
(PID.TID 0000.0001) %MON dynstat_wvel_mean            =  -1.1921525590710E-11
(PID.TID 0000.0001) %MON dynstat_wvel_sd              =   3.8703910426613E-06
(PID.TID 0000.0001) %MON dynstat_wvel_del2            =   8.5777426034790E-07
(PID.TID 0000.0001) %MON dynstat_theta_max            =   3.1145445111556E+01
(PID.TID 0000.0001) %MON dynstat_theta_min            =  -2.4565198421708E+00
(PID.TID 0000.0001) %MON dynstat_theta_mean           =   3.9289340490263E+00
(PID.TID 0000.0001) %MON dynstat_theta_sd             =   4.5752339766457E+00
(PID.TID 0000.0001) %MON dynstat_theta_del2           =   8.8138245936710E-02
(PID.TID 0000.0001) %MON dynstat_salt_max             =   4.1383467838571E+01
(PID.TID 0000.0001) %MON dynstat_salt_min             =   1.8394978038972E+01
(PID.TID 0000.0001) %MON dynstat_salt_mean            =   3.4775242621759E+01
(PID.TID 0000.0001) %MON dynstat_salt_sd              =   5.3471144396764E-01
(PID.TID 0000.0001) %MON dynstat_salt_del2            =   1.8970615045135E-02
(PID.TID 0000.0001) %MON advcfl_uvel_max              =   7.9540966186266E-02
(PID.TID 0000.0001) %MON advcfl_vvel_max              =   7.5271567289848E-02
(PID.TID 0000.0001) %MON advcfl_wvel_max              =   6.5823877206602E-02
(PID.TID 0000.0001) %MON advcfl_W_hf_max              =   1.0992157536907E-01
(PID.TID 0000.0001) %MON pe_b_mean                    =   4.7424668158646E-04
(PID.TID 0000.0001) %MON ke_max                       =   3.8143586716617E-02
(PID.TID 0000.0001) %MON ke_mean                      =   1.4092763076495E-04
(PID.TID 0000.0001) %MON ke_vol                       =   1.3398024453628E+18
(PID.TID 0000.0001) %MON vort_r_min                   =  -1.2852907140643E-06
(PID.TID 0000.0001) %MON vort_r_max                   =   1.2457568823856E-06
(PID.TID 0000.0001) %MON vort_a_mean                  =  -2.0493733748263E-05
(PID.TID 0000.0001) %MON vort_a_sd                    =   7.5053944837894E-05
(PID.TID 0000.0001) %MON vort_p_mean                  =  -2.4715569597021E-05
(PID.TID 0000.0001) %MON vort_p_sd                    =   1.2775772723077E-04
(PID.TID 0000.0001) %MON surfExpan_theta_mean         =   4.9606039444577E-08
(PID.TID 0000.0001) %MON surfExpan_salt_mean          =   1.5618036978594E-08
(PID.TID 0000.0001) // =======================================================
(PID.TID 0000.0001) // End MONITOR dynamic field statistics
(PID.TID 0000.0001) // =======================================================
(PID.TID 0000.0001) %CHECKPOINT     72020 0000072020
(PID.TID 0000.0001)   Seconds in section "ALL                    [THE_MODEL_MAIN]":
(PID.TID 0000.0001)           User time:  33.4600009
(PID.TID 0000.0001)         System time:  1.59000002
(PID.TID 0000.0001)     Wall clock time:  76.3491559
(PID.TID 0000.0001)          No. starts: 1
(PID.TID 0000.0001)           No. stops: 1
(PID.TID 0000.0001)   Seconds in section "INITIALISE_FIXED       [THE_MODEL_MAIN]":
(PID.TID 0000.0001)           User time:  1.41000001
(PID.TID 0000.0001)         System time:  0.420000007
(PID.TID 0000.0001)     Wall clock time:  16.329349
(PID.TID 0000.0001)          No. starts: 1
(PID.TID 0000.0001)           No. stops: 1
(PID.TID 0000.0001)   Seconds in section "THE_MAIN_LOOP          [THE_MODEL_MAIN]":
(PID.TID 0000.0001)           User time:  32.0500009
(PID.TID 0000.0001)         System time:  1.17000002
(PID.TID 0000.0001)     Wall clock time:  60.019681
(PID.TID 0000.0001)          No. starts: 1
(PID.TID 0000.0001)           No. stops: 1
(PID.TID 0000.0001)   Seconds in section "INITIALISE_VARIA    [THE_MAIN_LOOP]":
(PID.TID 0000.0001)           User time:  1.1500001
(PID.TID 0000.0001)         System time:  0.269999981
(PID.TID 0000.0001)     Wall clock time:  1.43793201
(PID.TID 0000.0001)          No. starts: 1
(PID.TID 0000.0001)           No. stops: 1
(PID.TID 0000.0001)   Seconds in section "MONITOR             [THE_MAIN_LOOP]":
(PID.TID 0000.0001)           User time:  0.109999895
(PID.TID 0000.0001)         System time:  0.
(PID.TID 0000.0001)     Wall clock time:  0.101572037
(PID.TID 0000.0001)          No. starts: 1
(PID.TID 0000.0001)           No. stops: 1
(PID.TID 0000.0001)   Seconds in section "DO_THE_MODEL_IO     [THE_MAIN_LOOP]":
(PID.TID 0000.0001)           User time:  0.25999999
(PID.TID 0000.0001)         System time:  0.150000036
(PID.TID 0000.0001)     Wall clock time:  6.98694587
(PID.TID 0000.0001)          No. starts: 1
(PID.TID 0000.0001)           No. stops: 1
(PID.TID 0000.0001)   Seconds in section "MAIN LOOP           [THE_MAIN_LOOP]":
(PID.TID 0000.0001)           User time:  30.5300009
(PID.TID 0000.0001)         System time:  0.75
(PID.TID 0000.0001)     Wall clock time:  51.493119
(PID.TID 0000.0001)          No. starts: 1
(PID.TID 0000.0001)           No. stops: 1
(PID.TID 0000.0001)   Seconds in section "FORWARD_STEP        [THE_MAIN_LOOP]":
(PID.TID 0000.0001)           User time:  30.5300009
(PID.TID 0000.0001)         System time:  0.75
(PID.TID 0000.0001)     Wall clock time:  51.4926674
(PID.TID 0000.0001)          No. starts: 20
(PID.TID 0000.0001)           No. stops: 20
(PID.TID 0000.0001)   Seconds in section "UPDATE_ETAH        [FORWARD_STEP]":
(PID.TID 0000.0001)           User time:  0.
(PID.TID 0000.0001)         System time:  0.
(PID.TID 0000.0001)     Wall clock time:  0.00634622574
(PID.TID 0000.0001)          No. starts: 20
(PID.TID 0000.0001)           No. stops: 20
(PID.TID 0000.0001)   Seconds in section "CALC_R_STAR       [FORWARD_STEP]":
(PID.TID 0000.0001)           User time:  0.270001888
(PID.TID 0000.0001)         System time:  0.
(PID.TID 0000.0001)     Wall clock time:  0.2614851
(PID.TID 0000.0001)          No. starts: 20
(PID.TID 0000.0001)           No. stops: 20
(PID.TID 0000.0001)   Seconds in section "EXTERNAL_FIELDS_LOAD[FORWARD_STEP]":
(PID.TID 0000.0001)           User time:  0.199996233
(PID.TID 0000.0001)         System time:  0.0199999809
(PID.TID 0000.0001)     Wall clock time:  0.240225554
(PID.TID 0000.0001)          No. starts: 20
(PID.TID 0000.0001)           No. stops: 20
(PID.TID 0000.0001)   Seconds in section "THERMODYNAMICS      [FORWARD_STEP]":
(PID.TID 0000.0001)           User time:  6.53000307
(PID.TID 0000.0001)         System time:  0.
(PID.TID 0000.0001)     Wall clock time:  6.53628445
(PID.TID 0000.0001)          No. starts: 20
(PID.TID 0000.0001)           No. stops: 20
(PID.TID 0000.0001)   Seconds in section "BLOCKING_EXCHANGES  [FORWARD_STEP]":
(PID.TID 0000.0001)           User time:  4.1799984
(PID.TID 0000.0001)         System time:  0.
(PID.TID 0000.0001)     Wall clock time:  4.1788547
(PID.TID 0000.0001)          No. starts: 40
(PID.TID 0000.0001)           No. stops: 40
(PID.TID 0000.0001)   Seconds in section "DYNAMICS            [FORWARD_STEP]":
(PID.TID 0000.0001)           User time:  5.69000101
(PID.TID 0000.0001)         System time:  0.
(PID.TID 0000.0001)     Wall clock time:  5.67900324
(PID.TID 0000.0001)          No. starts: 20
(PID.TID 0000.0001)           No. stops: 20
(PID.TID 0000.0001)   Seconds in section "UPDATE_R_STAR      [FORWARD_STEP]":
(PID.TID 0000.0001)           User time:  0.770000458
(PID.TID 0000.0001)         System time:  0.
(PID.TID 0000.0001)     Wall clock time:  0.792554855
(PID.TID 0000.0001)          No. starts: 20
(PID.TID 0000.0001)           No. stops: 20
(PID.TID 0000.0001)   Seconds in section "UPDATE_CG2D        [FORWARD_STEP]":
(PID.TID 0000.0001)           User time:  0.179996252
(PID.TID 0000.0001)         System time:  0.
(PID.TID 0000.0001)     Wall clock time:  0.146995544
(PID.TID 0000.0001)          No. starts: 20
(PID.TID 0000.0001)           No. stops: 20
(PID.TID 0000.0001)   Seconds in section "SOLVE_FOR_PRESSURE  [FORWARD_STEP]":
(PID.TID 0000.0001)           User time:  8.69000173
(PID.TID 0000.0001)         System time:  0.
(PID.TID 0000.0001)     Wall clock time:  8.69630218
(PID.TID 0000.0001)          No. starts: 20
(PID.TID 0000.0001)           No. stops: 20
(PID.TID 0000.0001)   Seconds in section "THE_CORRECTION_STEP [FORWARD_STEP]":
(PID.TID 0000.0001)           User time:  1.22999907
(PID.TID 0000.0001)         System time:  0.
(PID.TID 0000.0001)     Wall clock time:  1.24083185
(PID.TID 0000.0001)          No. starts: 20
(PID.TID 0000.0001)           No. stops: 20
(PID.TID 0000.0001)   Seconds in section "MONITOR             [FORWARD_STEP]":
(PID.TID 0000.0001)           User time:  2.04000282
(PID.TID 0000.0001)         System time:  0.
(PID.TID 0000.0001)     Wall clock time:  2.04255605
(PID.TID 0000.0001)          No. starts: 20
(PID.TID 0000.0001)           No. stops: 20
(PID.TID 0000.0001)   Seconds in section "DO_THE_MODEL_IO     [FORWARD_STEP]":
(PID.TID 0000.0001)           User time:  0.209999084
(PID.TID 0000.0001)         System time:  0.299999952
(PID.TID 0000.0001)     Wall clock time:  13.111917
(PID.TID 0000.0001)          No. starts: 20
(PID.TID 0000.0001)           No. stops: 20
(PID.TID 0000.0001)   Seconds in section "WRITE_CHECKPOINT    [FORWARD_STEP]":
(PID.TID 0000.0001)           User time:  0.520000458
(PID.TID 0000.0001)         System time:  0.430000067
(PID.TID 0000.0001)     Wall clock time:  8.54731965
(PID.TID 0000.0001)          No. starts: 20
(PID.TID 0000.0001)           No. stops: 20
(PID.TID 0000.0001)   Seconds in section "WRITE_CHECKPOINT       [THE_MODEL_MAIN]":
(PID.TID 0000.0001)           User time:  0.
(PID.TID 0000.0001)         System time:  0.
(PID.TID 0000.0001)     Wall clock time:  2.28881836E-05
(PID.TID 0000.0001)          No. starts: 1
(PID.TID 0000.0001)           No. stops: 1
(PID.TID 0000.0001) // ======================================================
(PID.TID 0000.0001) // Tile <-> Tile communication statistics
(PID.TID 0000.0001) // ======================================================
(PID.TID 0000.0001) // o Tile number: 000001
(PID.TID 0000.0001) //         No. X exchanges =              0
(PID.TID 0000.0001) //            Max. X spins =              0
(PID.TID 0000.0001) //            Min. X spins =     1000000000
(PID.TID 0000.0001) //          Total. X spins =              0
(PID.TID 0000.0001) //            Avg. X spins =       0.00E+00
(PID.TID 0000.0001) //         No. Y exchanges =              0
(PID.TID 0000.0001) //            Max. Y spins =              0
(PID.TID 0000.0001) //            Min. Y spins =     1000000000
(PID.TID 0000.0001) //          Total. Y spins =              0
(PID.TID 0000.0001) //            Avg. Y spins =       0.00E+00
(PID.TID 0000.0001) // o Tile number: 000002
(PID.TID 0000.0001) //         No. X exchanges =              0
(PID.TID 0000.0001) //            Max. X spins =              0
(PID.TID 0000.0001) //            Min. X spins =     1000000000
(PID.TID 0000.0001) //          Total. X spins =              0
(PID.TID 0000.0001) //            Avg. X spins =       0.00E+00
(PID.TID 0000.0001) //         No. Y exchanges =              0
(PID.TID 0000.0001) //            Max. Y spins =              0
(PID.TID 0000.0001) //            Min. Y spins =     1000000000
(PID.TID 0000.0001) //          Total. Y spins =              0
(PID.TID 0000.0001) //            Avg. Y spins =       0.00E+00
(PID.TID 0000.0001) // o Tile number: 000003
(PID.TID 0000.0001) //         No. X exchanges =              0
(PID.TID 0000.0001) //            Max. X spins =              0
(PID.TID 0000.0001) //            Min. X spins =     1000000000
(PID.TID 0000.0001) //          Total. X spins =              0
(PID.TID 0000.0001) //            Avg. X spins =       0.00E+00
(PID.TID 0000.0001) //         No. Y exchanges =              0
(PID.TID 0000.0001) //            Max. Y spins =              0
(PID.TID 0000.0001) //            Min. Y spins =     1000000000
(PID.TID 0000.0001) //          Total. Y spins =              0
(PID.TID 0000.0001) //            Avg. Y spins =       0.00E+00
(PID.TID 0000.0001) // o Tile number: 000004
(PID.TID 0000.0001) //         No. X exchanges =              0
(PID.TID 0000.0001) //            Max. X spins =              0
(PID.TID 0000.0001) //            Min. X spins =     1000000000
(PID.TID 0000.0001) //          Total. X spins =              0
(PID.TID 0000.0001) //            Avg. X spins =       0.00E+00
(PID.TID 0000.0001) //         No. Y exchanges =              0
(PID.TID 0000.0001) //            Max. Y spins =              0
(PID.TID 0000.0001) //            Min. Y spins =     1000000000
(PID.TID 0000.0001) //          Total. Y spins =              0
(PID.TID 0000.0001) //            Avg. Y spins =       0.00E+00
(PID.TID 0000.0001) // o Tile number: 000005
(PID.TID 0000.0001) //         No. X exchanges =              0
(PID.TID 0000.0001) //            Max. X spins =              0
(PID.TID 0000.0001) //            Min. X spins =     1000000000
(PID.TID 0000.0001) //          Total. X spins =              0
(PID.TID 0000.0001) //            Avg. X spins =       0.00E+00
(PID.TID 0000.0001) //         No. Y exchanges =              0
(PID.TID 0000.0001) //            Max. Y spins =              0
(PID.TID 0000.0001) //            Min. Y spins =     1000000000
(PID.TID 0000.0001) //          Total. Y spins =              0
(PID.TID 0000.0001) //            Avg. Y spins =       0.00E+00
(PID.TID 0000.0001) // o Tile number: 000006
(PID.TID 0000.0001) //         No. X exchanges =              0
(PID.TID 0000.0001) //            Max. X spins =              0
(PID.TID 0000.0001) //            Min. X spins =     1000000000
(PID.TID 0000.0001) //          Total. X spins =              0
(PID.TID 0000.0001) //            Avg. X spins =       0.00E+00
(PID.TID 0000.0001) //         No. Y exchanges =              0
(PID.TID 0000.0001) //            Max. Y spins =              0
(PID.TID 0000.0001) //            Min. Y spins =     1000000000
(PID.TID 0000.0001) //          Total. Y spins =              0
(PID.TID 0000.0001) //            Avg. Y spins =       0.00E+00
(PID.TID 0000.0001) // o Tile number: 000007
(PID.TID 0000.0001) //         No. X exchanges =              0
(PID.TID 0000.0001) //            Max. X spins =              0
(PID.TID 0000.0001) //            Min. X spins =     1000000000
(PID.TID 0000.0001) //          Total. X spins =              0
(PID.TID 0000.0001) //            Avg. X spins =       0.00E+00
(PID.TID 0000.0001) //         No. Y exchanges =              0
(PID.TID 0000.0001) //            Max. Y spins =              0
(PID.TID 0000.0001) //            Min. Y spins =     1000000000
(PID.TID 0000.0001) //          Total. Y spins =              0
(PID.TID 0000.0001) //            Avg. Y spins =       0.00E+00
(PID.TID 0000.0001) // o Tile number: 000008
(PID.TID 0000.0001) //         No. X exchanges =              0
(PID.TID 0000.0001) //            Max. X spins =              0
(PID.TID 0000.0001) //            Min. X spins =     1000000000
(PID.TID 0000.0001) //          Total. X spins =              0
(PID.TID 0000.0001) //            Avg. X spins =       0.00E+00
(PID.TID 0000.0001) //         No. Y exchanges =              0
(PID.TID 0000.0001) //            Max. Y spins =              0
(PID.TID 0000.0001) //            Min. Y spins =     1000000000
(PID.TID 0000.0001) //          Total. Y spins =              0
(PID.TID 0000.0001) //            Avg. Y spins =       0.00E+00
(PID.TID 0000.0001) // o Tile number: 000009
(PID.TID 0000.0001) //         No. X exchanges =              0
(PID.TID 0000.0001) //            Max. X spins =              0
(PID.TID 0000.0001) //            Min. X spins =     1000000000
(PID.TID 0000.0001) //          Total. X spins =              0
(PID.TID 0000.0001) //            Avg. X spins =       0.00E+00
(PID.TID 0000.0001) //         No. Y exchanges =              0
(PID.TID 0000.0001) //            Max. Y spins =              0
(PID.TID 0000.0001) //            Min. Y spins =     1000000000
(PID.TID 0000.0001) //          Total. Y spins =              0
(PID.TID 0000.0001) //            Avg. Y spins =       0.00E+00
(PID.TID 0000.0001) // o Tile number: 000010
(PID.TID 0000.0001) //         No. X exchanges =              0
(PID.TID 0000.0001) //            Max. X spins =              0
(PID.TID 0000.0001) //            Min. X spins =     1000000000
(PID.TID 0000.0001) //          Total. X spins =              0
(PID.TID 0000.0001) //            Avg. X spins =       0.00E+00
(PID.TID 0000.0001) //         No. Y exchanges =              0
(PID.TID 0000.0001) //            Max. Y spins =              0
(PID.TID 0000.0001) //            Min. Y spins =     1000000000
(PID.TID 0000.0001) //          Total. Y spins =              0
(PID.TID 0000.0001) //            Avg. Y spins =       0.00E+00
(PID.TID 0000.0001) // o Tile number: 000011
(PID.TID 0000.0001) //         No. X exchanges =              0
(PID.TID 0000.0001) //            Max. X spins =              0
(PID.TID 0000.0001) //            Min. X spins =     1000000000
(PID.TID 0000.0001) //          Total. X spins =              0
(PID.TID 0000.0001) //            Avg. X spins =       0.00E+00
(PID.TID 0000.0001) //         No. Y exchanges =              0
(PID.TID 0000.0001) //            Max. Y spins =              0
(PID.TID 0000.0001) //            Min. Y spins =     1000000000
(PID.TID 0000.0001) //          Total. Y spins =              0
(PID.TID 0000.0001) //            Avg. Y spins =       0.00E+00
(PID.TID 0000.0001) // o Tile number: 000012
(PID.TID 0000.0001) //         No. X exchanges =              0
(PID.TID 0000.0001) //            Max. X spins =              0
(PID.TID 0000.0001) //            Min. X spins =     1000000000
(PID.TID 0000.0001) //          Total. X spins =              0
(PID.TID 0000.0001) //            Avg. X spins =       0.00E+00
(PID.TID 0000.0001) //         No. Y exchanges =              0
(PID.TID 0000.0001) //            Max. Y spins =              0
(PID.TID 0000.0001) //            Min. Y spins =     1000000000
(PID.TID 0000.0001) //          Total. Y spins =              0
(PID.TID 0000.0001) //            Avg. Y spins =       0.00E+00
(PID.TID 0000.0001) // o Tile number: 000013
(PID.TID 0000.0001) //         No. X exchanges =              0
(PID.TID 0000.0001) //            Max. X spins =              0
(PID.TID 0000.0001) //            Min. X spins =     1000000000
(PID.TID 0000.0001) //          Total. X spins =              0
(PID.TID 0000.0001) //            Avg. X spins =       0.00E+00
(PID.TID 0000.0001) //         No. Y exchanges =              0
(PID.TID 0000.0001) //            Max. Y spins =              0
(PID.TID 0000.0001) //            Min. Y spins =     1000000000
(PID.TID 0000.0001) //          Total. Y spins =              0
(PID.TID 0000.0001) //            Avg. Y spins =       0.00E+00
(PID.TID 0000.0001) // o Tile number: 000014
(PID.TID 0000.0001) //         No. X exchanges =              0
(PID.TID 0000.0001) //            Max. X spins =              0
(PID.TID 0000.0001) //            Min. X spins =     1000000000
(PID.TID 0000.0001) //          Total. X spins =              0
(PID.TID 0000.0001) //            Avg. X spins =       0.00E+00
(PID.TID 0000.0001) //         No. Y exchanges =              0
(PID.TID 0000.0001) //            Max. Y spins =              0
(PID.TID 0000.0001) //            Min. Y spins =     1000000000
(PID.TID 0000.0001) //          Total. Y spins =              0
(PID.TID 0000.0001) //            Avg. Y spins =       0.00E+00
(PID.TID 0000.0001) // o Tile number: 000015
(PID.TID 0000.0001) //         No. X exchanges =              0
(PID.TID 0000.0001) //            Max. X spins =              0
(PID.TID 0000.0001) //            Min. X spins =     1000000000
(PID.TID 0000.0001) //          Total. X spins =              0
(PID.TID 0000.0001) //            Avg. X spins =       0.00E+00
(PID.TID 0000.0001) //         No. Y exchanges =              0
(PID.TID 0000.0001) //            Max. Y spins =              0
(PID.TID 0000.0001) //            Min. Y spins =     1000000000
(PID.TID 0000.0001) //          Total. Y spins =              0
(PID.TID 0000.0001) //            Avg. Y spins =       0.00E+00
(PID.TID 0000.0001) // o Tile number: 000016
(PID.TID 0000.0001) //         No. X exchanges =              0
(PID.TID 0000.0001) //            Max. X spins =              0
(PID.TID 0000.0001) //            Min. X spins =     1000000000
(PID.TID 0000.0001) //          Total. X spins =              0
(PID.TID 0000.0001) //            Avg. X spins =       0.00E+00
(PID.TID 0000.0001) //         No. Y exchanges =              0
(PID.TID 0000.0001) //            Max. Y spins =              0
(PID.TID 0000.0001) //            Min. Y spins =     1000000000
(PID.TID 0000.0001) //          Total. Y spins =              0
(PID.TID 0000.0001) //            Avg. Y spins =       0.00E+00
(PID.TID 0000.0001) // o Tile number: 000017
(PID.TID 0000.0001) //         No. X exchanges =              0
(PID.TID 0000.0001) //            Max. X spins =              0
(PID.TID 0000.0001) //            Min. X spins =     1000000000
(PID.TID 0000.0001) //          Total. X spins =              0
(PID.TID 0000.0001) //            Avg. X spins =       0.00E+00
(PID.TID 0000.0001) //         No. Y exchanges =              0
(PID.TID 0000.0001) //            Max. Y spins =              0
(PID.TID 0000.0001) //            Min. Y spins =     1000000000
(PID.TID 0000.0001) //          Total. Y spins =              0
(PID.TID 0000.0001) //            Avg. Y spins =       0.00E+00
(PID.TID 0000.0001) // o Tile number: 000018
(PID.TID 0000.0001) //         No. X exchanges =              0
(PID.TID 0000.0001) //            Max. X spins =              0
(PID.TID 0000.0001) //            Min. X spins =     1000000000
(PID.TID 0000.0001) //          Total. X spins =              0
(PID.TID 0000.0001) //            Avg. X spins =       0.00E+00
(PID.TID 0000.0001) //         No. Y exchanges =              0
(PID.TID 0000.0001) //            Max. Y spins =              0
(PID.TID 0000.0001) //            Min. Y spins =     1000000000
(PID.TID 0000.0001) //          Total. Y spins =              0
(PID.TID 0000.0001) //            Avg. Y spins =       0.00E+00
(PID.TID 0000.0001) // o Tile number: 000019
(PID.TID 0000.0001) //         No. X exchanges =              0
(PID.TID 0000.0001) //            Max. X spins =              0
(PID.TID 0000.0001) //            Min. X spins =     1000000000
(PID.TID 0000.0001) //          Total. X spins =              0
(PID.TID 0000.0001) //            Avg. X spins =       0.00E+00
(PID.TID 0000.0001) //         No. Y exchanges =              0
(PID.TID 0000.0001) //            Max. Y spins =              0
(PID.TID 0000.0001) //            Min. Y spins =     1000000000
(PID.TID 0000.0001) //          Total. Y spins =              0
(PID.TID 0000.0001) //            Avg. Y spins =       0.00E+00
(PID.TID 0000.0001) // o Tile number: 000020
(PID.TID 0000.0001) //         No. X exchanges =              0
(PID.TID 0000.0001) //            Max. X spins =              0
(PID.TID 0000.0001) //            Min. X spins =     1000000000
(PID.TID 0000.0001) //          Total. X spins =              0
(PID.TID 0000.0001) //            Avg. X spins =       0.00E+00
(PID.TID 0000.0001) //         No. Y exchanges =              0
(PID.TID 0000.0001) //            Max. Y spins =              0
(PID.TID 0000.0001) //            Min. Y spins =     1000000000
(PID.TID 0000.0001) //          Total. Y spins =              0
(PID.TID 0000.0001) //            Avg. Y spins =       0.00E+00
(PID.TID 0000.0001) // o Tile number: 000021
(PID.TID 0000.0001) //         No. X exchanges =              0
(PID.TID 0000.0001) //            Max. X spins =              0
(PID.TID 0000.0001) //            Min. X spins =     1000000000
(PID.TID 0000.0001) //          Total. X spins =              0
(PID.TID 0000.0001) //            Avg. X spins =       0.00E+00
(PID.TID 0000.0001) //         No. Y exchanges =              0
(PID.TID 0000.0001) //            Max. Y spins =              0
(PID.TID 0000.0001) //            Min. Y spins =     1000000000
(PID.TID 0000.0001) //          Total. Y spins =              0
(PID.TID 0000.0001) //            Avg. Y spins =       0.00E+00
(PID.TID 0000.0001) // o Tile number: 000022
(PID.TID 0000.0001) //         No. X exchanges =              0
(PID.TID 0000.0001) //            Max. X spins =              0
(PID.TID 0000.0001) //            Min. X spins =     1000000000
(PID.TID 0000.0001) //          Total. X spins =              0
(PID.TID 0000.0001) //            Avg. X spins =       0.00E+00
(PID.TID 0000.0001) //         No. Y exchanges =              0
(PID.TID 0000.0001) //            Max. Y spins =              0
(PID.TID 0000.0001) //            Min. Y spins =     1000000000
(PID.TID 0000.0001) //          Total. Y spins =              0
(PID.TID 0000.0001) //            Avg. Y spins =       0.00E+00
(PID.TID 0000.0001) // o Tile number: 000023
(PID.TID 0000.0001) //         No. X exchanges =              0
(PID.TID 0000.0001) //            Max. X spins =              0
(PID.TID 0000.0001) //            Min. X spins =     1000000000
(PID.TID 0000.0001) //          Total. X spins =              0
(PID.TID 0000.0001) //            Avg. X spins =       0.00E+00
(PID.TID 0000.0001) //         No. Y exchanges =              0
(PID.TID 0000.0001) //            Max. Y spins =              0
(PID.TID 0000.0001) //            Min. Y spins =     1000000000
(PID.TID 0000.0001) //          Total. Y spins =              0
(PID.TID 0000.0001) //            Avg. Y spins =       0.00E+00
(PID.TID 0000.0001) // o Tile number: 000024
(PID.TID 0000.0001) //         No. X exchanges =              0
(PID.TID 0000.0001) //            Max. X spins =              0
(PID.TID 0000.0001) //            Min. X spins =     1000000000
(PID.TID 0000.0001) //          Total. X spins =              0
(PID.TID 0000.0001) //            Avg. X spins =       0.00E+00
(PID.TID 0000.0001) //         No. Y exchanges =              0
(PID.TID 0000.0001) //            Max. Y spins =              0
(PID.TID 0000.0001) //            Min. Y spins =     1000000000
(PID.TID 0000.0001) //          Total. Y spins =              0
(PID.TID 0000.0001) //            Avg. Y spins =       0.00E+00
(PID.TID 0000.0001) // o Tile number: 000025
(PID.TID 0000.0001) //         No. X exchanges =              0
(PID.TID 0000.0001) //            Max. X spins =              0
(PID.TID 0000.0001) //            Min. X spins =     1000000000
(PID.TID 0000.0001) //          Total. X spins =              0
(PID.TID 0000.0001) //            Avg. X spins =       0.00E+00
(PID.TID 0000.0001) //         No. Y exchanges =              0
(PID.TID 0000.0001) //            Max. Y spins =              0
(PID.TID 0000.0001) //            Min. Y spins =     1000000000
(PID.TID 0000.0001) //          Total. Y spins =              0
(PID.TID 0000.0001) //            Avg. Y spins =       0.00E+00
(PID.TID 0000.0001) // o Tile number: 000026
(PID.TID 0000.0001) //         No. X exchanges =              0
(PID.TID 0000.0001) //            Max. X spins =              0
(PID.TID 0000.0001) //            Min. X spins =     1000000000
(PID.TID 0000.0001) //          Total. X spins =              0
(PID.TID 0000.0001) //            Avg. X spins =       0.00E+00
(PID.TID 0000.0001) //         No. Y exchanges =              0
(PID.TID 0000.0001) //            Max. Y spins =              0
(PID.TID 0000.0001) //            Min. Y spins =     1000000000
(PID.TID 0000.0001) //          Total. Y spins =              0
(PID.TID 0000.0001) //            Avg. Y spins =       0.00E+00
(PID.TID 0000.0001) // o Tile number: 000027
(PID.TID 0000.0001) //         No. X exchanges =              0
(PID.TID 0000.0001) //            Max. X spins =              0
(PID.TID 0000.0001) //            Min. X spins =     1000000000
(PID.TID 0000.0001) //          Total. X spins =              0
(PID.TID 0000.0001) //            Avg. X spins =       0.00E+00
(PID.TID 0000.0001) //         No. Y exchanges =              0
(PID.TID 0000.0001) //            Max. Y spins =              0
(PID.TID 0000.0001) //            Min. Y spins =     1000000000
(PID.TID 0000.0001) //          Total. Y spins =              0
(PID.TID 0000.0001) //            Avg. Y spins =       0.00E+00
(PID.TID 0000.0001) // o Tile number: 000028
(PID.TID 0000.0001) //         No. X exchanges =              0
(PID.TID 0000.0001) //            Max. X spins =              0
(PID.TID 0000.0001) //            Min. X spins =     1000000000
(PID.TID 0000.0001) //          Total. X spins =              0
(PID.TID 0000.0001) //            Avg. X spins =       0.00E+00
(PID.TID 0000.0001) //         No. Y exchanges =              0
(PID.TID 0000.0001) //            Max. Y spins =              0
(PID.TID 0000.0001) //            Min. Y spins =     1000000000
(PID.TID 0000.0001) //          Total. Y spins =              0
(PID.TID 0000.0001) //            Avg. Y spins =       0.00E+00
(PID.TID 0000.0001) // o Tile number: 000029
(PID.TID 0000.0001) //         No. X exchanges =              0
(PID.TID 0000.0001) //            Max. X spins =              0
(PID.TID 0000.0001) //            Min. X spins =     1000000000
(PID.TID 0000.0001) //          Total. X spins =              0
(PID.TID 0000.0001) //            Avg. X spins =       0.00E+00
(PID.TID 0000.0001) //         No. Y exchanges =              0
(PID.TID 0000.0001) //            Max. Y spins =              0
(PID.TID 0000.0001) //            Min. Y spins =     1000000000
(PID.TID 0000.0001) //          Total. Y spins =              0
(PID.TID 0000.0001) //            Avg. Y spins =       0.00E+00
(PID.TID 0000.0001) // o Tile number: 000030
(PID.TID 0000.0001) //         No. X exchanges =              0
(PID.TID 0000.0001) //            Max. X spins =              0
(PID.TID 0000.0001) //            Min. X spins =     1000000000
(PID.TID 0000.0001) //          Total. X spins =              0
(PID.TID 0000.0001) //            Avg. X spins =       0.00E+00
(PID.TID 0000.0001) //         No. Y exchanges =              0
(PID.TID 0000.0001) //            Max. Y spins =              0
(PID.TID 0000.0001) //            Min. Y spins =     1000000000
(PID.TID 0000.0001) //          Total. Y spins =              0
(PID.TID 0000.0001) //            Avg. Y spins =       0.00E+00
(PID.TID 0000.0001) // o Tile number: 000031
(PID.TID 0000.0001) //         No. X exchanges =              0
(PID.TID 0000.0001) //            Max. X spins =              0
(PID.TID 0000.0001) //            Min. X spins =     1000000000
(PID.TID 0000.0001) //          Total. X spins =              0
(PID.TID 0000.0001) //            Avg. X spins =       0.00E+00
(PID.TID 0000.0001) //         No. Y exchanges =              0
(PID.TID 0000.0001) //            Max. Y spins =              0
(PID.TID 0000.0001) //            Min. Y spins =     1000000000
(PID.TID 0000.0001) //          Total. Y spins =              0
(PID.TID 0000.0001) //            Avg. Y spins =       0.00E+00
(PID.TID 0000.0001) // o Tile number: 000032
(PID.TID 0000.0001) //         No. X exchanges =              0
(PID.TID 0000.0001) //            Max. X spins =              0
(PID.TID 0000.0001) //            Min. X spins =     1000000000
(PID.TID 0000.0001) //          Total. X spins =              0
(PID.TID 0000.0001) //            Avg. X spins =       0.00E+00
(PID.TID 0000.0001) //         No. Y exchanges =              0
(PID.TID 0000.0001) //            Max. Y spins =              0
(PID.TID 0000.0001) //            Min. Y spins =     1000000000
(PID.TID 0000.0001) //          Total. Y spins =              0
(PID.TID 0000.0001) //            Avg. Y spins =       0.00E+00
(PID.TID 0000.0001) // o Tile number: 000033
(PID.TID 0000.0001) //         No. X exchanges =              0
(PID.TID 0000.0001) //            Max. X spins =              0
(PID.TID 0000.0001) //            Min. X spins =     1000000000
(PID.TID 0000.0001) //          Total. X spins =              0
(PID.TID 0000.0001) //            Avg. X spins =       0.00E+00
(PID.TID 0000.0001) //         No. Y exchanges =              0
(PID.TID 0000.0001) //            Max. Y spins =              0
(PID.TID 0000.0001) //            Min. Y spins =     1000000000
(PID.TID 0000.0001) //          Total. Y spins =              0
(PID.TID 0000.0001) //            Avg. Y spins =       0.00E+00
(PID.TID 0000.0001) // o Tile number: 000034
(PID.TID 0000.0001) //         No. X exchanges =              0
(PID.TID 0000.0001) //            Max. X spins =              0
(PID.TID 0000.0001) //            Min. X spins =     1000000000
(PID.TID 0000.0001) //          Total. X spins =              0
(PID.TID 0000.0001) //            Avg. X spins =       0.00E+00
(PID.TID 0000.0001) //         No. Y exchanges =              0
(PID.TID 0000.0001) //            Max. Y spins =              0
(PID.TID 0000.0001) //            Min. Y spins =     1000000000
(PID.TID 0000.0001) //          Total. Y spins =              0
(PID.TID 0000.0001) //            Avg. Y spins =       0.00E+00
(PID.TID 0000.0001) // o Tile number: 000035
(PID.TID 0000.0001) //         No. X exchanges =              0
(PID.TID 0000.0001) //            Max. X spins =              0
(PID.TID 0000.0001) //            Min. X spins =     1000000000
(PID.TID 0000.0001) //          Total. X spins =              0
(PID.TID 0000.0001) //            Avg. X spins =       0.00E+00
(PID.TID 0000.0001) //         No. Y exchanges =              0
(PID.TID 0000.0001) //            Max. Y spins =              0
(PID.TID 0000.0001) //            Min. Y spins =     1000000000
(PID.TID 0000.0001) //          Total. Y spins =              0
(PID.TID 0000.0001) //            Avg. Y spins =       0.00E+00
(PID.TID 0000.0001) // o Tile number: 000036
(PID.TID 0000.0001) //         No. X exchanges =              0
(PID.TID 0000.0001) //            Max. X spins =              0
(PID.TID 0000.0001) //            Min. X spins =     1000000000
(PID.TID 0000.0001) //          Total. X spins =              0
(PID.TID 0000.0001) //            Avg. X spins =       0.00E+00
(PID.TID 0000.0001) //         No. Y exchanges =              0
(PID.TID 0000.0001) //            Max. Y spins =              0
(PID.TID 0000.0001) //            Min. Y spins =     1000000000
(PID.TID 0000.0001) //          Total. Y spins =              0
(PID.TID 0000.0001) //            Avg. Y spins =       0.00E+00
(PID.TID 0000.0001) // o Tile number: 000037
(PID.TID 0000.0001) //         No. X exchanges =              0
(PID.TID 0000.0001) //            Max. X spins =              0
(PID.TID 0000.0001) //            Min. X spins =     1000000000
(PID.TID 0000.0001) //          Total. X spins =              0
(PID.TID 0000.0001) //            Avg. X spins =       0.00E+00
(PID.TID 0000.0001) //         No. Y exchanges =              0
(PID.TID 0000.0001) //            Max. Y spins =              0
(PID.TID 0000.0001) //            Min. Y spins =     1000000000
(PID.TID 0000.0001) //          Total. Y spins =              0
(PID.TID 0000.0001) //            Avg. Y spins =       0.00E+00
(PID.TID 0000.0001) // o Tile number: 000038
(PID.TID 0000.0001) //         No. X exchanges =              0
(PID.TID 0000.0001) //            Max. X spins =              0
(PID.TID 0000.0001) //            Min. X spins =     1000000000
(PID.TID 0000.0001) //          Total. X spins =              0
(PID.TID 0000.0001) //            Avg. X spins =       0.00E+00
(PID.TID 0000.0001) //         No. Y exchanges =              0
(PID.TID 0000.0001) //            Max. Y spins =              0
(PID.TID 0000.0001) //            Min. Y spins =     1000000000
(PID.TID 0000.0001) //          Total. Y spins =              0
(PID.TID 0000.0001) //            Avg. Y spins =       0.00E+00
(PID.TID 0000.0001) // o Tile number: 000039
(PID.TID 0000.0001) //         No. X exchanges =              0
(PID.TID 0000.0001) //            Max. X spins =              0
(PID.TID 0000.0001) //            Min. X spins =     1000000000
(PID.TID 0000.0001) //          Total. X spins =              0
(PID.TID 0000.0001) //            Avg. X spins =       0.00E+00
(PID.TID 0000.0001) //         No. Y exchanges =              0
(PID.TID 0000.0001) //            Max. Y spins =              0
(PID.TID 0000.0001) //            Min. Y spins =     1000000000
(PID.TID 0000.0001) //          Total. Y spins =              0
(PID.TID 0000.0001) //            Avg. Y spins =       0.00E+00
(PID.TID 0000.0001) // o Tile number: 000040
(PID.TID 0000.0001) //         No. X exchanges =              0
(PID.TID 0000.0001) //            Max. X spins =              0
(PID.TID 0000.0001) //            Min. X spins =     1000000000
(PID.TID 0000.0001) //          Total. X spins =              0
(PID.TID 0000.0001) //            Avg. X spins =       0.00E+00
(PID.TID 0000.0001) //         No. Y exchanges =              0
(PID.TID 0000.0001) //            Max. Y spins =              0
(PID.TID 0000.0001) //            Min. Y spins =     1000000000
(PID.TID 0000.0001) //          Total. Y spins =              0
(PID.TID 0000.0001) //            Avg. Y spins =       0.00E+00
(PID.TID 0000.0001) // o Tile number: 000041
(PID.TID 0000.0001) //         No. X exchanges =              0
(PID.TID 0000.0001) //            Max. X spins =              0
(PID.TID 0000.0001) //            Min. X spins =     1000000000
(PID.TID 0000.0001) //          Total. X spins =              0
(PID.TID 0000.0001) //            Avg. X spins =       0.00E+00
(PID.TID 0000.0001) //         No. Y exchanges =              0
(PID.TID 0000.0001) //            Max. Y spins =              0
(PID.TID 0000.0001) //            Min. Y spins =     1000000000
(PID.TID 0000.0001) //          Total. Y spins =              0
(PID.TID 0000.0001) //            Avg. Y spins =       0.00E+00
(PID.TID 0000.0001) // o Tile number: 000042
(PID.TID 0000.0001) //         No. X exchanges =              0
(PID.TID 0000.0001) //            Max. X spins =              0
(PID.TID 0000.0001) //            Min. X spins =     1000000000
(PID.TID 0000.0001) //          Total. X spins =              0
(PID.TID 0000.0001) //            Avg. X spins =       0.00E+00
(PID.TID 0000.0001) //         No. Y exchanges =              0
(PID.TID 0000.0001) //            Max. Y spins =              0
(PID.TID 0000.0001) //            Min. Y spins =     1000000000
(PID.TID 0000.0001) //          Total. Y spins =              0
(PID.TID 0000.0001) //            Avg. Y spins =       0.00E+00
(PID.TID 0000.0001) // o Tile number: 000043
(PID.TID 0000.0001) //         No. X exchanges =              0
(PID.TID 0000.0001) //            Max. X spins =              0
(PID.TID 0000.0001) //            Min. X spins =     1000000000
(PID.TID 0000.0001) //          Total. X spins =              0
(PID.TID 0000.0001) //            Avg. X spins =       0.00E+00
(PID.TID 0000.0001) //         No. Y exchanges =              0
(PID.TID 0000.0001) //            Max. Y spins =              0
(PID.TID 0000.0001) //            Min. Y spins =     1000000000
(PID.TID 0000.0001) //          Total. Y spins =              0
(PID.TID 0000.0001) //            Avg. Y spins =       0.00E+00
(PID.TID 0000.0001) // o Tile number: 000044
(PID.TID 0000.0001) //         No. X exchanges =              0
(PID.TID 0000.0001) //            Max. X spins =              0
(PID.TID 0000.0001) //            Min. X spins =     1000000000
(PID.TID 0000.0001) //          Total. X spins =              0
(PID.TID 0000.0001) //            Avg. X spins =       0.00E+00
(PID.TID 0000.0001) //         No. Y exchanges =              0
(PID.TID 0000.0001) //            Max. Y spins =              0
(PID.TID 0000.0001) //            Min. Y spins =     1000000000
(PID.TID 0000.0001) //          Total. Y spins =              0
(PID.TID 0000.0001) //            Avg. Y spins =       0.00E+00
(PID.TID 0000.0001) // o Tile number: 000045
(PID.TID 0000.0001) //         No. X exchanges =              0
(PID.TID 0000.0001) //            Max. X spins =              0
(PID.TID 0000.0001) //            Min. X spins =     1000000000
(PID.TID 0000.0001) //          Total. X spins =              0
(PID.TID 0000.0001) //            Avg. X spins =       0.00E+00
(PID.TID 0000.0001) //         No. Y exchanges =              0
(PID.TID 0000.0001) //            Max. Y spins =              0
(PID.TID 0000.0001) //            Min. Y spins =     1000000000
(PID.TID 0000.0001) //          Total. Y spins =              0
(PID.TID 0000.0001) //            Avg. Y spins =       0.00E+00
(PID.TID 0000.0001) // o Tile number: 000046
(PID.TID 0000.0001) //         No. X exchanges =              0
(PID.TID 0000.0001) //            Max. X spins =              0
(PID.TID 0000.0001) //            Min. X spins =     1000000000
(PID.TID 0000.0001) //          Total. X spins =              0
(PID.TID 0000.0001) //            Avg. X spins =       0.00E+00
(PID.TID 0000.0001) //         No. Y exchanges =              0
(PID.TID 0000.0001) //            Max. Y spins =              0
(PID.TID 0000.0001) //            Min. Y spins =     1000000000
(PID.TID 0000.0001) //          Total. Y spins =              0
(PID.TID 0000.0001) //            Avg. Y spins =       0.00E+00
(PID.TID 0000.0001) // o Tile number: 000047
(PID.TID 0000.0001) //         No. X exchanges =              0
(PID.TID 0000.0001) //            Max. X spins =              0
(PID.TID 0000.0001) //            Min. X spins =     1000000000
(PID.TID 0000.0001) //          Total. X spins =              0
(PID.TID 0000.0001) //            Avg. X spins =       0.00E+00
(PID.TID 0000.0001) //         No. Y exchanges =              0
(PID.TID 0000.0001) //            Max. Y spins =              0
(PID.TID 0000.0001) //            Min. Y spins =     1000000000
(PID.TID 0000.0001) //          Total. Y spins =              0
(PID.TID 0000.0001) //            Avg. Y spins =       0.00E+00
(PID.TID 0000.0001) // o Tile number: 000048
(PID.TID 0000.0001) //         No. X exchanges =              0
(PID.TID 0000.0001) //            Max. X spins =              0
(PID.TID 0000.0001) //            Min. X spins =     1000000000
(PID.TID 0000.0001) //          Total. X spins =              0
(PID.TID 0000.0001) //            Avg. X spins =       0.00E+00
(PID.TID 0000.0001) //         No. Y exchanges =              0
(PID.TID 0000.0001) //            Max. Y spins =              0
(PID.TID 0000.0001) //            Min. Y spins =     1000000000
(PID.TID 0000.0001) //          Total. Y spins =              0
(PID.TID 0000.0001) //            Avg. Y spins =       0.00E+00
(PID.TID 0000.0001) // o Tile number: 000049
(PID.TID 0000.0001) //         No. X exchanges =              0
(PID.TID 0000.0001) //            Max. X spins =              0
(PID.TID 0000.0001) //            Min. X spins =     1000000000
(PID.TID 0000.0001) //          Total. X spins =              0
(PID.TID 0000.0001) //            Avg. X spins =       0.00E+00
(PID.TID 0000.0001) //         No. Y exchanges =              0
(PID.TID 0000.0001) //            Max. Y spins =              0
(PID.TID 0000.0001) //            Min. Y spins =     1000000000
(PID.TID 0000.0001) //          Total. Y spins =              0
(PID.TID 0000.0001) //            Avg. Y spins =       0.00E+00
(PID.TID 0000.0001) // o Tile number: 000050
(PID.TID 0000.0001) //         No. X exchanges =              0
(PID.TID 0000.0001) //            Max. X spins =              0
(PID.TID 0000.0001) //            Min. X spins =     1000000000
(PID.TID 0000.0001) //          Total. X spins =              0
(PID.TID 0000.0001) //            Avg. X spins =       0.00E+00
(PID.TID 0000.0001) //         No. Y exchanges =              0
(PID.TID 0000.0001) //            Max. Y spins =              0
(PID.TID 0000.0001) //            Min. Y spins =     1000000000
(PID.TID 0000.0001) //          Total. Y spins =              0
(PID.TID 0000.0001) //            Avg. Y spins =       0.00E+00
(PID.TID 0000.0001) // o Tile number: 000051
(PID.TID 0000.0001) //         No. X exchanges =              0
(PID.TID 0000.0001) //            Max. X spins =              0
(PID.TID 0000.0001) //            Min. X spins =     1000000000
(PID.TID 0000.0001) //          Total. X spins =              0
(PID.TID 0000.0001) //            Avg. X spins =       0.00E+00
(PID.TID 0000.0001) //         No. Y exchanges =              0
(PID.TID 0000.0001) //            Max. Y spins =              0
(PID.TID 0000.0001) //            Min. Y spins =     1000000000
(PID.TID 0000.0001) //          Total. Y spins =              0
(PID.TID 0000.0001) //            Avg. Y spins =       0.00E+00
(PID.TID 0000.0001) // o Tile number: 000052
(PID.TID 0000.0001) //         No. X exchanges =              0
(PID.TID 0000.0001) //            Max. X spins =              0
(PID.TID 0000.0001) //            Min. X spins =     1000000000
(PID.TID 0000.0001) //          Total. X spins =              0
(PID.TID 0000.0001) //            Avg. X spins =       0.00E+00
(PID.TID 0000.0001) //         No. Y exchanges =              0
(PID.TID 0000.0001) //            Max. Y spins =              0
(PID.TID 0000.0001) //            Min. Y spins =     1000000000
(PID.TID 0000.0001) //          Total. Y spins =              0
(PID.TID 0000.0001) //            Avg. Y spins =       0.00E+00
(PID.TID 0000.0001) // o Tile number: 000053
(PID.TID 0000.0001) //         No. X exchanges =              0
(PID.TID 0000.0001) //            Max. X spins =              0
(PID.TID 0000.0001) //            Min. X spins =     1000000000
(PID.TID 0000.0001) //          Total. X spins =              0
(PID.TID 0000.0001) //            Avg. X spins =       0.00E+00
(PID.TID 0000.0001) //         No. Y exchanges =              0
(PID.TID 0000.0001) //            Max. Y spins =              0
(PID.TID 0000.0001) //            Min. Y spins =     1000000000
(PID.TID 0000.0001) //          Total. Y spins =              0
(PID.TID 0000.0001) //            Avg. Y spins =       0.00E+00
(PID.TID 0000.0001) // o Tile number: 000054
(PID.TID 0000.0001) //         No. X exchanges =              0
(PID.TID 0000.0001) //            Max. X spins =              0
(PID.TID 0000.0001) //            Min. X spins =     1000000000
(PID.TID 0000.0001) //          Total. X spins =              0
(PID.TID 0000.0001) //            Avg. X spins =       0.00E+00
(PID.TID 0000.0001) //         No. Y exchanges =              0
(PID.TID 0000.0001) //            Max. Y spins =              0
(PID.TID 0000.0001) //            Min. Y spins =     1000000000
(PID.TID 0000.0001) //          Total. Y spins =              0
(PID.TID 0000.0001) //            Avg. Y spins =       0.00E+00
(PID.TID 0000.0001) // o Tile number: 000055
(PID.TID 0000.0001) //         No. X exchanges =              0
(PID.TID 0000.0001) //            Max. X spins =              0
(PID.TID 0000.0001) //            Min. X spins =     1000000000
(PID.TID 0000.0001) //          Total. X spins =              0
(PID.TID 0000.0001) //            Avg. X spins =       0.00E+00
(PID.TID 0000.0001) //         No. Y exchanges =              0
(PID.TID 0000.0001) //            Max. Y spins =              0
(PID.TID 0000.0001) //            Min. Y spins =     1000000000
(PID.TID 0000.0001) //          Total. Y spins =              0
(PID.TID 0000.0001) //            Avg. Y spins =       0.00E+00
(PID.TID 0000.0001) // o Tile number: 000056
(PID.TID 0000.0001) //         No. X exchanges =              0
(PID.TID 0000.0001) //            Max. X spins =              0
(PID.TID 0000.0001) //            Min. X spins =     1000000000
(PID.TID 0000.0001) //          Total. X spins =              0
(PID.TID 0000.0001) //            Avg. X spins =       0.00E+00
(PID.TID 0000.0001) //         No. Y exchanges =              0
(PID.TID 0000.0001) //            Max. Y spins =              0
(PID.TID 0000.0001) //            Min. Y spins =     1000000000
(PID.TID 0000.0001) //          Total. Y spins =              0
(PID.TID 0000.0001) //            Avg. Y spins =       0.00E+00
(PID.TID 0000.0001) // o Tile number: 000057
(PID.TID 0000.0001) //         No. X exchanges =              0
(PID.TID 0000.0001) //            Max. X spins =              0
(PID.TID 0000.0001) //            Min. X spins =     1000000000
(PID.TID 0000.0001) //          Total. X spins =              0
(PID.TID 0000.0001) //            Avg. X spins =       0.00E+00
(PID.TID 0000.0001) //         No. Y exchanges =              0
(PID.TID 0000.0001) //            Max. Y spins =              0
(PID.TID 0000.0001) //            Min. Y spins =     1000000000
(PID.TID 0000.0001) //          Total. Y spins =              0
(PID.TID 0000.0001) //            Avg. Y spins =       0.00E+00
(PID.TID 0000.0001) // o Tile number: 000058
(PID.TID 0000.0001) //         No. X exchanges =              0
(PID.TID 0000.0001) //            Max. X spins =              0
(PID.TID 0000.0001) //            Min. X spins =     1000000000
(PID.TID 0000.0001) //          Total. X spins =              0
(PID.TID 0000.0001) //            Avg. X spins =       0.00E+00
(PID.TID 0000.0001) //         No. Y exchanges =              0
(PID.TID 0000.0001) //            Max. Y spins =              0
(PID.TID 0000.0001) //            Min. Y spins =     1000000000
(PID.TID 0000.0001) //          Total. Y spins =              0
(PID.TID 0000.0001) //            Avg. Y spins =       0.00E+00
(PID.TID 0000.0001) // o Tile number: 000059
(PID.TID 0000.0001) //         No. X exchanges =              0
(PID.TID 0000.0001) //            Max. X spins =              0
(PID.TID 0000.0001) //            Min. X spins =     1000000000
(PID.TID 0000.0001) //          Total. X spins =              0
(PID.TID 0000.0001) //            Avg. X spins =       0.00E+00
(PID.TID 0000.0001) //         No. Y exchanges =              0
(PID.TID 0000.0001) //            Max. Y spins =              0
(PID.TID 0000.0001) //            Min. Y spins =     1000000000
(PID.TID 0000.0001) //          Total. Y spins =              0
(PID.TID 0000.0001) //            Avg. Y spins =       0.00E+00
(PID.TID 0000.0001) // o Tile number: 000060
(PID.TID 0000.0001) //         No. X exchanges =              0
(PID.TID 0000.0001) //            Max. X spins =              0
(PID.TID 0000.0001) //            Min. X spins =     1000000000
(PID.TID 0000.0001) //          Total. X spins =              0
(PID.TID 0000.0001) //            Avg. X spins =       0.00E+00
(PID.TID 0000.0001) //         No. Y exchanges =              0
(PID.TID 0000.0001) //            Max. Y spins =              0
(PID.TID 0000.0001) //            Min. Y spins =     1000000000
(PID.TID 0000.0001) //          Total. Y spins =              0
(PID.TID 0000.0001) //            Avg. Y spins =       0.00E+00
(PID.TID 0000.0001) // o Tile number: 000061
(PID.TID 0000.0001) //         No. X exchanges =              0
(PID.TID 0000.0001) //            Max. X spins =              0
(PID.TID 0000.0001) //            Min. X spins =     1000000000
(PID.TID 0000.0001) //          Total. X spins =              0
(PID.TID 0000.0001) //            Avg. X spins =       0.00E+00
(PID.TID 0000.0001) //         No. Y exchanges =              0
(PID.TID 0000.0001) //            Max. Y spins =              0
(PID.TID 0000.0001) //            Min. Y spins =     1000000000
(PID.TID 0000.0001) //          Total. Y spins =              0
(PID.TID 0000.0001) //            Avg. Y spins =       0.00E+00
(PID.TID 0000.0001) // o Tile number: 000062
(PID.TID 0000.0001) //         No. X exchanges =              0
(PID.TID 0000.0001) //            Max. X spins =              0
(PID.TID 0000.0001) //            Min. X spins =     1000000000
(PID.TID 0000.0001) //          Total. X spins =              0
(PID.TID 0000.0001) //            Avg. X spins =       0.00E+00
(PID.TID 0000.0001) //         No. Y exchanges =              0
(PID.TID 0000.0001) //            Max. Y spins =              0
(PID.TID 0000.0001) //            Min. Y spins =     1000000000
(PID.TID 0000.0001) //          Total. Y spins =              0
(PID.TID 0000.0001) //            Avg. Y spins =       0.00E+00
(PID.TID 0000.0001) // o Tile number: 000063
(PID.TID 0000.0001) //         No. X exchanges =              0
(PID.TID 0000.0001) //            Max. X spins =              0
(PID.TID 0000.0001) //            Min. X spins =     1000000000
(PID.TID 0000.0001) //          Total. X spins =              0
(PID.TID 0000.0001) //            Avg. X spins =       0.00E+00
(PID.TID 0000.0001) //         No. Y exchanges =              0
(PID.TID 0000.0001) //            Max. Y spins =              0
(PID.TID 0000.0001) //            Min. Y spins =     1000000000
(PID.TID 0000.0001) //          Total. Y spins =              0
(PID.TID 0000.0001) //            Avg. Y spins =       0.00E+00
(PID.TID 0000.0001) // o Tile number: 000064
(PID.TID 0000.0001) //         No. X exchanges =              0
(PID.TID 0000.0001) //            Max. X spins =              0
(PID.TID 0000.0001) //            Min. X spins =     1000000000
(PID.TID 0000.0001) //          Total. X spins =              0
(PID.TID 0000.0001) //            Avg. X spins =       0.00E+00
(PID.TID 0000.0001) //         No. Y exchanges =              0
(PID.TID 0000.0001) //            Max. Y spins =              0
(PID.TID 0000.0001) //            Min. Y spins =     1000000000
(PID.TID 0000.0001) //          Total. Y spins =              0
(PID.TID 0000.0001) //            Avg. Y spins =       0.00E+00
(PID.TID 0000.0001) // o Tile number: 000065
(PID.TID 0000.0001) //         No. X exchanges =              0
(PID.TID 0000.0001) //            Max. X spins =              0
(PID.TID 0000.0001) //            Min. X spins =     1000000000
(PID.TID 0000.0001) //          Total. X spins =              0
(PID.TID 0000.0001) //            Avg. X spins =       0.00E+00
(PID.TID 0000.0001) //         No. Y exchanges =              0
(PID.TID 0000.0001) //            Max. Y spins =              0
(PID.TID 0000.0001) //            Min. Y spins =     1000000000
(PID.TID 0000.0001) //          Total. Y spins =              0
(PID.TID 0000.0001) //            Avg. Y spins =       0.00E+00
(PID.TID 0000.0001) // o Tile number: 000066
(PID.TID 0000.0001) //         No. X exchanges =              0
(PID.TID 0000.0001) //            Max. X spins =              0
(PID.TID 0000.0001) //            Min. X spins =     1000000000
(PID.TID 0000.0001) //          Total. X spins =              0
(PID.TID 0000.0001) //            Avg. X spins =       0.00E+00
(PID.TID 0000.0001) //         No. Y exchanges =              0
(PID.TID 0000.0001) //            Max. Y spins =              0
(PID.TID 0000.0001) //            Min. Y spins =     1000000000
(PID.TID 0000.0001) //          Total. Y spins =              0
(PID.TID 0000.0001) //            Avg. Y spins =       0.00E+00
(PID.TID 0000.0001) // o Tile number: 000067
(PID.TID 0000.0001) //         No. X exchanges =              0
(PID.TID 0000.0001) //            Max. X spins =              0
(PID.TID 0000.0001) //            Min. X spins =     1000000000
(PID.TID 0000.0001) //          Total. X spins =              0
(PID.TID 0000.0001) //            Avg. X spins =       0.00E+00
(PID.TID 0000.0001) //         No. Y exchanges =              0
(PID.TID 0000.0001) //            Max. Y spins =              0
(PID.TID 0000.0001) //            Min. Y spins =     1000000000
(PID.TID 0000.0001) //          Total. Y spins =              0
(PID.TID 0000.0001) //            Avg. Y spins =       0.00E+00
(PID.TID 0000.0001) // o Tile number: 000068
(PID.TID 0000.0001) //         No. X exchanges =              0
(PID.TID 0000.0001) //            Max. X spins =              0
(PID.TID 0000.0001) //            Min. X spins =     1000000000
(PID.TID 0000.0001) //          Total. X spins =              0
(PID.TID 0000.0001) //            Avg. X spins =       0.00E+00
(PID.TID 0000.0001) //         No. Y exchanges =              0
(PID.TID 0000.0001) //            Max. Y spins =              0
(PID.TID 0000.0001) //            Min. Y spins =     1000000000
(PID.TID 0000.0001) //          Total. Y spins =              0
(PID.TID 0000.0001) //            Avg. Y spins =       0.00E+00
(PID.TID 0000.0001) // o Tile number: 000069
(PID.TID 0000.0001) //         No. X exchanges =              0
(PID.TID 0000.0001) //            Max. X spins =              0
(PID.TID 0000.0001) //            Min. X spins =     1000000000
(PID.TID 0000.0001) //          Total. X spins =              0
(PID.TID 0000.0001) //            Avg. X spins =       0.00E+00
(PID.TID 0000.0001) //         No. Y exchanges =              0
(PID.TID 0000.0001) //            Max. Y spins =              0
(PID.TID 0000.0001) //            Min. Y spins =     1000000000
(PID.TID 0000.0001) //          Total. Y spins =              0
(PID.TID 0000.0001) //            Avg. Y spins =       0.00E+00
(PID.TID 0000.0001) // o Tile number: 000070
(PID.TID 0000.0001) //         No. X exchanges =              0
(PID.TID 0000.0001) //            Max. X spins =              0
(PID.TID 0000.0001) //            Min. X spins =     1000000000
(PID.TID 0000.0001) //          Total. X spins =              0
(PID.TID 0000.0001) //            Avg. X spins =       0.00E+00
(PID.TID 0000.0001) //         No. Y exchanges =              0
(PID.TID 0000.0001) //            Max. Y spins =              0
(PID.TID 0000.0001) //            Min. Y spins =     1000000000
(PID.TID 0000.0001) //          Total. Y spins =              0
(PID.TID 0000.0001) //            Avg. Y spins =       0.00E+00
(PID.TID 0000.0001) // o Tile number: 000071
(PID.TID 0000.0001) //         No. X exchanges =              0
(PID.TID 0000.0001) //            Max. X spins =              0
(PID.TID 0000.0001) //            Min. X spins =     1000000000
(PID.TID 0000.0001) //          Total. X spins =              0
(PID.TID 0000.0001) //            Avg. X spins =       0.00E+00
(PID.TID 0000.0001) //         No. Y exchanges =              0
(PID.TID 0000.0001) //            Max. Y spins =              0
(PID.TID 0000.0001) //            Min. Y spins =     1000000000
(PID.TID 0000.0001) //          Total. Y spins =              0
(PID.TID 0000.0001) //            Avg. Y spins =       0.00E+00
(PID.TID 0000.0001) // o Tile number: 000072
(PID.TID 0000.0001) //         No. X exchanges =              0
(PID.TID 0000.0001) //            Max. X spins =              0
(PID.TID 0000.0001) //            Min. X spins =     1000000000
(PID.TID 0000.0001) //          Total. X spins =              0
(PID.TID 0000.0001) //            Avg. X spins =       0.00E+00
(PID.TID 0000.0001) //         No. Y exchanges =              0
(PID.TID 0000.0001) //            Max. Y spins =              0
(PID.TID 0000.0001) //            Min. Y spins =     1000000000
(PID.TID 0000.0001) //          Total. Y spins =              0
(PID.TID 0000.0001) //            Avg. Y spins =       0.00E+00
(PID.TID 0000.0001) // o Tile number: 000073
(PID.TID 0000.0001) //         No. X exchanges =              0
(PID.TID 0000.0001) //            Max. X spins =              0
(PID.TID 0000.0001) //            Min. X spins =     1000000000
(PID.TID 0000.0001) //          Total. X spins =              0
(PID.TID 0000.0001) //            Avg. X spins =       0.00E+00
(PID.TID 0000.0001) //         No. Y exchanges =              0
(PID.TID 0000.0001) //            Max. Y spins =              0
(PID.TID 0000.0001) //            Min. Y spins =     1000000000
(PID.TID 0000.0001) //          Total. Y spins =              0
(PID.TID 0000.0001) //            Avg. Y spins =       0.00E+00
(PID.TID 0000.0001) // o Tile number: 000074
(PID.TID 0000.0001) //         No. X exchanges =              0
(PID.TID 0000.0001) //            Max. X spins =              0
(PID.TID 0000.0001) //            Min. X spins =     1000000000
(PID.TID 0000.0001) //          Total. X spins =              0
(PID.TID 0000.0001) //            Avg. X spins =       0.00E+00
(PID.TID 0000.0001) //         No. Y exchanges =              0
(PID.TID 0000.0001) //            Max. Y spins =              0
(PID.TID 0000.0001) //            Min. Y spins =     1000000000
(PID.TID 0000.0001) //          Total. Y spins =              0
(PID.TID 0000.0001) //            Avg. Y spins =       0.00E+00
(PID.TID 0000.0001) // o Tile number: 000075
(PID.TID 0000.0001) //         No. X exchanges =              0
(PID.TID 0000.0001) //            Max. X spins =              0
(PID.TID 0000.0001) //            Min. X spins =     1000000000
(PID.TID 0000.0001) //          Total. X spins =              0
(PID.TID 0000.0001) //            Avg. X spins =       0.00E+00
(PID.TID 0000.0001) //         No. Y exchanges =              0
(PID.TID 0000.0001) //            Max. Y spins =              0
(PID.TID 0000.0001) //            Min. Y spins =     1000000000
(PID.TID 0000.0001) //          Total. Y spins =              0
(PID.TID 0000.0001) //            Avg. Y spins =       0.00E+00
(PID.TID 0000.0001) // o Tile number: 000076
(PID.TID 0000.0001) //         No. X exchanges =              0
(PID.TID 0000.0001) //            Max. X spins =              0
(PID.TID 0000.0001) //            Min. X spins =     1000000000
(PID.TID 0000.0001) //          Total. X spins =              0
(PID.TID 0000.0001) //            Avg. X spins =       0.00E+00
(PID.TID 0000.0001) //         No. Y exchanges =              0
(PID.TID 0000.0001) //            Max. Y spins =              0
(PID.TID 0000.0001) //            Min. Y spins =     1000000000
(PID.TID 0000.0001) //          Total. Y spins =              0
(PID.TID 0000.0001) //            Avg. Y spins =       0.00E+00
(PID.TID 0000.0001) // o Tile number: 000077
(PID.TID 0000.0001) //         No. X exchanges =              0
(PID.TID 0000.0001) //            Max. X spins =              0
(PID.TID 0000.0001) //            Min. X spins =     1000000000
(PID.TID 0000.0001) //          Total. X spins =              0
(PID.TID 0000.0001) //            Avg. X spins =       0.00E+00
(PID.TID 0000.0001) //         No. Y exchanges =              0
(PID.TID 0000.0001) //            Max. Y spins =              0
(PID.TID 0000.0001) //            Min. Y spins =     1000000000
(PID.TID 0000.0001) //          Total. Y spins =              0
(PID.TID 0000.0001) //            Avg. Y spins =       0.00E+00
(PID.TID 0000.0001) // o Tile number: 000078
(PID.TID 0000.0001) //         No. X exchanges =              0
(PID.TID 0000.0001) //            Max. X spins =              0
(PID.TID 0000.0001) //            Min. X spins =     1000000000
(PID.TID 0000.0001) //          Total. X spins =              0
(PID.TID 0000.0001) //            Avg. X spins =       0.00E+00
(PID.TID 0000.0001) //         No. Y exchanges =              0
(PID.TID 0000.0001) //            Max. Y spins =              0
(PID.TID 0000.0001) //            Min. Y spins =     1000000000
(PID.TID 0000.0001) //          Total. Y spins =              0
(PID.TID 0000.0001) //            Avg. Y spins =       0.00E+00
(PID.TID 0000.0001) // o Tile number: 000079
(PID.TID 0000.0001) //         No. X exchanges =              0
(PID.TID 0000.0001) //            Max. X spins =              0
(PID.TID 0000.0001) //            Min. X spins =     1000000000
(PID.TID 0000.0001) //          Total. X spins =              0
(PID.TID 0000.0001) //            Avg. X spins =       0.00E+00
(PID.TID 0000.0001) //         No. Y exchanges =              0
(PID.TID 0000.0001) //            Max. Y spins =              0
(PID.TID 0000.0001) //            Min. Y spins =     1000000000
(PID.TID 0000.0001) //          Total. Y spins =              0
(PID.TID 0000.0001) //            Avg. Y spins =       0.00E+00
(PID.TID 0000.0001) // o Tile number: 000080
(PID.TID 0000.0001) //         No. X exchanges =              0
(PID.TID 0000.0001) //            Max. X spins =              0
(PID.TID 0000.0001) //            Min. X spins =     1000000000
(PID.TID 0000.0001) //          Total. X spins =              0
(PID.TID 0000.0001) //            Avg. X spins =       0.00E+00
(PID.TID 0000.0001) //         No. Y exchanges =              0
(PID.TID 0000.0001) //            Max. Y spins =              0
(PID.TID 0000.0001) //            Min. Y spins =     1000000000
(PID.TID 0000.0001) //          Total. Y spins =              0
(PID.TID 0000.0001) //            Avg. Y spins =       0.00E+00
(PID.TID 0000.0001) // o Tile number: 000081
(PID.TID 0000.0001) //         No. X exchanges =              0
(PID.TID 0000.0001) //            Max. X spins =              0
(PID.TID 0000.0001) //            Min. X spins =     1000000000
(PID.TID 0000.0001) //          Total. X spins =              0
(PID.TID 0000.0001) //            Avg. X spins =       0.00E+00
(PID.TID 0000.0001) //         No. Y exchanges =              0
(PID.TID 0000.0001) //            Max. Y spins =              0
(PID.TID 0000.0001) //            Min. Y spins =     1000000000
(PID.TID 0000.0001) //          Total. Y spins =              0
(PID.TID 0000.0001) //            Avg. Y spins =       0.00E+00
(PID.TID 0000.0001) // o Tile number: 000082
(PID.TID 0000.0001) //         No. X exchanges =              0
(PID.TID 0000.0001) //            Max. X spins =              0
(PID.TID 0000.0001) //            Min. X spins =     1000000000
(PID.TID 0000.0001) //          Total. X spins =              0
(PID.TID 0000.0001) //            Avg. X spins =       0.00E+00
(PID.TID 0000.0001) //         No. Y exchanges =              0
(PID.TID 0000.0001) //            Max. Y spins =              0
(PID.TID 0000.0001) //            Min. Y spins =     1000000000
(PID.TID 0000.0001) //          Total. Y spins =              0
(PID.TID 0000.0001) //            Avg. Y spins =       0.00E+00
(PID.TID 0000.0001) // o Tile number: 000083
(PID.TID 0000.0001) //         No. X exchanges =              0
(PID.TID 0000.0001) //            Max. X spins =              0
(PID.TID 0000.0001) //            Min. X spins =     1000000000
(PID.TID 0000.0001) //          Total. X spins =              0
(PID.TID 0000.0001) //            Avg. X spins =       0.00E+00
(PID.TID 0000.0001) //         No. Y exchanges =              0
(PID.TID 0000.0001) //            Max. Y spins =              0
(PID.TID 0000.0001) //            Min. Y spins =     1000000000
(PID.TID 0000.0001) //          Total. Y spins =              0
(PID.TID 0000.0001) //            Avg. Y spins =       0.00E+00
(PID.TID 0000.0001) // o Tile number: 000084
(PID.TID 0000.0001) //         No. X exchanges =              0
(PID.TID 0000.0001) //            Max. X spins =              0
(PID.TID 0000.0001) //            Min. X spins =     1000000000
(PID.TID 0000.0001) //          Total. X spins =              0
(PID.TID 0000.0001) //            Avg. X spins =       0.00E+00
(PID.TID 0000.0001) //         No. Y exchanges =              0
(PID.TID 0000.0001) //            Max. Y spins =              0
(PID.TID 0000.0001) //            Min. Y spins =     1000000000
(PID.TID 0000.0001) //          Total. Y spins =              0
(PID.TID 0000.0001) //            Avg. Y spins =       0.00E+00
(PID.TID 0000.0001) // o Tile number: 000085
(PID.TID 0000.0001) //         No. X exchanges =              0
(PID.TID 0000.0001) //            Max. X spins =              0
(PID.TID 0000.0001) //            Min. X spins =     1000000000
(PID.TID 0000.0001) //          Total. X spins =              0
(PID.TID 0000.0001) //            Avg. X spins =       0.00E+00
(PID.TID 0000.0001) //         No. Y exchanges =              0
(PID.TID 0000.0001) //            Max. Y spins =              0
(PID.TID 0000.0001) //            Min. Y spins =     1000000000
(PID.TID 0000.0001) //          Total. Y spins =              0
(PID.TID 0000.0001) //            Avg. Y spins =       0.00E+00
(PID.TID 0000.0001) // o Tile number: 000086
(PID.TID 0000.0001) //         No. X exchanges =              0
(PID.TID 0000.0001) //            Max. X spins =              0
(PID.TID 0000.0001) //            Min. X spins =     1000000000
(PID.TID 0000.0001) //          Total. X spins =              0
(PID.TID 0000.0001) //            Avg. X spins =       0.00E+00
(PID.TID 0000.0001) //         No. Y exchanges =              0
(PID.TID 0000.0001) //            Max. Y spins =              0
(PID.TID 0000.0001) //            Min. Y spins =     1000000000
(PID.TID 0000.0001) //          Total. Y spins =              0
(PID.TID 0000.0001) //            Avg. Y spins =       0.00E+00
(PID.TID 0000.0001) // o Tile number: 000087
(PID.TID 0000.0001) //         No. X exchanges =              0
(PID.TID 0000.0001) //            Max. X spins =              0
(PID.TID 0000.0001) //            Min. X spins =     1000000000
(PID.TID 0000.0001) //          Total. X spins =              0
(PID.TID 0000.0001) //            Avg. X spins =       0.00E+00
(PID.TID 0000.0001) //         No. Y exchanges =              0
(PID.TID 0000.0001) //            Max. Y spins =              0
(PID.TID 0000.0001) //            Min. Y spins =     1000000000
(PID.TID 0000.0001) //          Total. Y spins =              0
(PID.TID 0000.0001) //            Avg. Y spins =       0.00E+00
(PID.TID 0000.0001) // o Tile number: 000088
(PID.TID 0000.0001) //         No. X exchanges =              0
(PID.TID 0000.0001) //            Max. X spins =              0
(PID.TID 0000.0001) //            Min. X spins =     1000000000
(PID.TID 0000.0001) //          Total. X spins =              0
(PID.TID 0000.0001) //            Avg. X spins =       0.00E+00
(PID.TID 0000.0001) //         No. Y exchanges =              0
(PID.TID 0000.0001) //            Max. Y spins =              0
(PID.TID 0000.0001) //            Min. Y spins =     1000000000
(PID.TID 0000.0001) //          Total. Y spins =              0
(PID.TID 0000.0001) //            Avg. Y spins =       0.00E+00
(PID.TID 0000.0001) // o Tile number: 000089
(PID.TID 0000.0001) //         No. X exchanges =              0
(PID.TID 0000.0001) //            Max. X spins =              0
(PID.TID 0000.0001) //            Min. X spins =     1000000000
(PID.TID 0000.0001) //          Total. X spins =              0
(PID.TID 0000.0001) //            Avg. X spins =       0.00E+00
(PID.TID 0000.0001) //         No. Y exchanges =              0
(PID.TID 0000.0001) //            Max. Y spins =              0
(PID.TID 0000.0001) //            Min. Y spins =     1000000000
(PID.TID 0000.0001) //          Total. Y spins =              0
(PID.TID 0000.0001) //            Avg. Y spins =       0.00E+00
(PID.TID 0000.0001) // o Tile number: 000090
(PID.TID 0000.0001) //         No. X exchanges =              0
(PID.TID 0000.0001) //            Max. X spins =              0
(PID.TID 0000.0001) //            Min. X spins =     1000000000
(PID.TID 0000.0001) //          Total. X spins =              0
(PID.TID 0000.0001) //            Avg. X spins =       0.00E+00
(PID.TID 0000.0001) //         No. Y exchanges =              0
(PID.TID 0000.0001) //            Max. Y spins =              0
(PID.TID 0000.0001) //            Min. Y spins =     1000000000
(PID.TID 0000.0001) //          Total. Y spins =              0
(PID.TID 0000.0001) //            Avg. Y spins =       0.00E+00
(PID.TID 0000.0001) // o Tile number: 000091
(PID.TID 0000.0001) //         No. X exchanges =              0
(PID.TID 0000.0001) //            Max. X spins =              0
(PID.TID 0000.0001) //            Min. X spins =     1000000000
(PID.TID 0000.0001) //          Total. X spins =              0
(PID.TID 0000.0001) //            Avg. X spins =       0.00E+00
(PID.TID 0000.0001) //         No. Y exchanges =              0
(PID.TID 0000.0001) //            Max. Y spins =              0
(PID.TID 0000.0001) //            Min. Y spins =     1000000000
(PID.TID 0000.0001) //          Total. Y spins =              0
(PID.TID 0000.0001) //            Avg. Y spins =       0.00E+00
(PID.TID 0000.0001) // o Tile number: 000092
(PID.TID 0000.0001) //         No. X exchanges =              0
(PID.TID 0000.0001) //            Max. X spins =              0
(PID.TID 0000.0001) //            Min. X spins =     1000000000
(PID.TID 0000.0001) //          Total. X spins =              0
(PID.TID 0000.0001) //            Avg. X spins =       0.00E+00
(PID.TID 0000.0001) //         No. Y exchanges =              0
(PID.TID 0000.0001) //            Max. Y spins =              0
(PID.TID 0000.0001) //            Min. Y spins =     1000000000
(PID.TID 0000.0001) //          Total. Y spins =              0
(PID.TID 0000.0001) //            Avg. Y spins =       0.00E+00
(PID.TID 0000.0001) // o Tile number: 000093
(PID.TID 0000.0001) //         No. X exchanges =              0
(PID.TID 0000.0001) //            Max. X spins =              0
(PID.TID 0000.0001) //            Min. X spins =     1000000000
(PID.TID 0000.0001) //          Total. X spins =              0
(PID.TID 0000.0001) //            Avg. X spins =       0.00E+00
(PID.TID 0000.0001) //         No. Y exchanges =              0
(PID.TID 0000.0001) //            Max. Y spins =              0
(PID.TID 0000.0001) //            Min. Y spins =     1000000000
(PID.TID 0000.0001) //          Total. Y spins =              0
(PID.TID 0000.0001) //            Avg. Y spins =       0.00E+00
(PID.TID 0000.0001) // o Tile number: 000094
(PID.TID 0000.0001) //         No. X exchanges =              0
(PID.TID 0000.0001) //            Max. X spins =              0
(PID.TID 0000.0001) //            Min. X spins =     1000000000
(PID.TID 0000.0001) //          Total. X spins =              0
(PID.TID 0000.0001) //            Avg. X spins =       0.00E+00
(PID.TID 0000.0001) //         No. Y exchanges =              0
(PID.TID 0000.0001) //            Max. Y spins =              0
(PID.TID 0000.0001) //            Min. Y spins =     1000000000
(PID.TID 0000.0001) //          Total. Y spins =              0
(PID.TID 0000.0001) //            Avg. Y spins =       0.00E+00
(PID.TID 0000.0001) // o Tile number: 000095
(PID.TID 0000.0001) //         No. X exchanges =              0
(PID.TID 0000.0001) //            Max. X spins =              0
(PID.TID 0000.0001) //            Min. X spins =     1000000000
(PID.TID 0000.0001) //          Total. X spins =              0
(PID.TID 0000.0001) //            Avg. X spins =       0.00E+00
(PID.TID 0000.0001) //         No. Y exchanges =              0
(PID.TID 0000.0001) //            Max. Y spins =              0
(PID.TID 0000.0001) //            Min. Y spins =     1000000000
(PID.TID 0000.0001) //          Total. Y spins =              0
(PID.TID 0000.0001) //            Avg. Y spins =       0.00E+00
(PID.TID 0000.0001) // o Tile number: 000096
(PID.TID 0000.0001) //         No. X exchanges =              0
(PID.TID 0000.0001) //            Max. X spins =              0
(PID.TID 0000.0001) //            Min. X spins =     1000000000
(PID.TID 0000.0001) //          Total. X spins =              0
(PID.TID 0000.0001) //            Avg. X spins =       0.00E+00
(PID.TID 0000.0001) //         No. Y exchanges =              0
(PID.TID 0000.0001) //            Max. Y spins =              0
(PID.TID 0000.0001) //            Min. Y spins =     1000000000
(PID.TID 0000.0001) //          Total. Y spins =              0
(PID.TID 0000.0001) //            Avg. Y spins =       0.00E+00
(PID.TID 0000.0001) // o Tile number: 000097
(PID.TID 0000.0001) //         No. X exchanges =              0
(PID.TID 0000.0001) //            Max. X spins =              0
(PID.TID 0000.0001) //            Min. X spins =     1000000000
(PID.TID 0000.0001) //          Total. X spins =              0
(PID.TID 0000.0001) //            Avg. X spins =       0.00E+00
(PID.TID 0000.0001) //         No. Y exchanges =              0
(PID.TID 0000.0001) //            Max. Y spins =              0
(PID.TID 0000.0001) //            Min. Y spins =     1000000000
(PID.TID 0000.0001) //          Total. Y spins =              0
(PID.TID 0000.0001) //            Avg. Y spins =       0.00E+00
(PID.TID 0000.0001) // o Tile number: 000098
(PID.TID 0000.0001) //         No. X exchanges =              0
(PID.TID 0000.0001) //            Max. X spins =              0
(PID.TID 0000.0001) //            Min. X spins =     1000000000
(PID.TID 0000.0001) //          Total. X spins =              0
(PID.TID 0000.0001) //            Avg. X spins =       0.00E+00
(PID.TID 0000.0001) //         No. Y exchanges =              0
(PID.TID 0000.0001) //            Max. Y spins =              0
(PID.TID 0000.0001) //            Min. Y spins =     1000000000
(PID.TID 0000.0001) //          Total. Y spins =              0
(PID.TID 0000.0001) //            Avg. Y spins =       0.00E+00
(PID.TID 0000.0001) // o Tile number: 000099
(PID.TID 0000.0001) //         No. X exchanges =              0
(PID.TID 0000.0001) //            Max. X spins =              0
(PID.TID 0000.0001) //            Min. X spins =     1000000000
(PID.TID 0000.0001) //          Total. X spins =              0
(PID.TID 0000.0001) //            Avg. X spins =       0.00E+00
(PID.TID 0000.0001) //         No. Y exchanges =              0
(PID.TID 0000.0001) //            Max. Y spins =              0
(PID.TID 0000.0001) //            Min. Y spins =     1000000000
(PID.TID 0000.0001) //          Total. Y spins =              0
(PID.TID 0000.0001) //            Avg. Y spins =       0.00E+00
(PID.TID 0000.0001) // o Tile number: 000100
(PID.TID 0000.0001) //         No. X exchanges =              0
(PID.TID 0000.0001) //            Max. X spins =              0
(PID.TID 0000.0001) //            Min. X spins =     1000000000
(PID.TID 0000.0001) //          Total. X spins =              0
(PID.TID 0000.0001) //            Avg. X spins =       0.00E+00
(PID.TID 0000.0001) //         No. Y exchanges =              0
(PID.TID 0000.0001) //            Max. Y spins =              0
(PID.TID 0000.0001) //            Min. Y spins =     1000000000
(PID.TID 0000.0001) //          Total. Y spins =              0
(PID.TID 0000.0001) //            Avg. Y spins =       0.00E+00
(PID.TID 0000.0001) // o Tile number: 000101
(PID.TID 0000.0001) //         No. X exchanges =              0
(PID.TID 0000.0001) //            Max. X spins =              0
(PID.TID 0000.0001) //            Min. X spins =     1000000000
(PID.TID 0000.0001) //          Total. X spins =              0
(PID.TID 0000.0001) //            Avg. X spins =       0.00E+00
(PID.TID 0000.0001) //         No. Y exchanges =              0
(PID.TID 0000.0001) //            Max. Y spins =              0
(PID.TID 0000.0001) //            Min. Y spins =     1000000000
(PID.TID 0000.0001) //          Total. Y spins =              0
(PID.TID 0000.0001) //            Avg. Y spins =       0.00E+00
(PID.TID 0000.0001) // o Tile number: 000102
(PID.TID 0000.0001) //         No. X exchanges =              0
(PID.TID 0000.0001) //            Max. X spins =              0
(PID.TID 0000.0001) //            Min. X spins =     1000000000
(PID.TID 0000.0001) //          Total. X spins =              0
(PID.TID 0000.0001) //            Avg. X spins =       0.00E+00
(PID.TID 0000.0001) //         No. Y exchanges =              0
(PID.TID 0000.0001) //            Max. Y spins =              0
(PID.TID 0000.0001) //            Min. Y spins =     1000000000
(PID.TID 0000.0001) //          Total. Y spins =              0
(PID.TID 0000.0001) //            Avg. Y spins =       0.00E+00
(PID.TID 0000.0001) // o Tile number: 000103
(PID.TID 0000.0001) //         No. X exchanges =              0
(PID.TID 0000.0001) //            Max. X spins =              0
(PID.TID 0000.0001) //            Min. X spins =     1000000000
(PID.TID 0000.0001) //          Total. X spins =              0
(PID.TID 0000.0001) //            Avg. X spins =       0.00E+00
(PID.TID 0000.0001) //         No. Y exchanges =              0
(PID.TID 0000.0001) //            Max. Y spins =              0
(PID.TID 0000.0001) //            Min. Y spins =     1000000000
(PID.TID 0000.0001) //          Total. Y spins =              0
(PID.TID 0000.0001) //            Avg. Y spins =       0.00E+00
(PID.TID 0000.0001) // o Tile number: 000104
(PID.TID 0000.0001) //         No. X exchanges =              0
(PID.TID 0000.0001) //            Max. X spins =              0
(PID.TID 0000.0001) //            Min. X spins =     1000000000
(PID.TID 0000.0001) //          Total. X spins =              0
(PID.TID 0000.0001) //            Avg. X spins =       0.00E+00
(PID.TID 0000.0001) //         No. Y exchanges =              0
(PID.TID 0000.0001) //            Max. Y spins =              0
(PID.TID 0000.0001) //            Min. Y spins =     1000000000
(PID.TID 0000.0001) //          Total. Y spins =              0
(PID.TID 0000.0001) //            Avg. Y spins =       0.00E+00
(PID.TID 0000.0001) // o Tile number: 000105
(PID.TID 0000.0001) //         No. X exchanges =              0
(PID.TID 0000.0001) //            Max. X spins =              0
(PID.TID 0000.0001) //            Min. X spins =     1000000000
(PID.TID 0000.0001) //          Total. X spins =              0
(PID.TID 0000.0001) //            Avg. X spins =       0.00E+00
(PID.TID 0000.0001) //         No. Y exchanges =              0
(PID.TID 0000.0001) //            Max. Y spins =              0
(PID.TID 0000.0001) //            Min. Y spins =     1000000000
(PID.TID 0000.0001) //          Total. Y spins =              0
(PID.TID 0000.0001) //            Avg. Y spins =       0.00E+00
(PID.TID 0000.0001) // o Tile number: 000106
(PID.TID 0000.0001) //         No. X exchanges =              0
(PID.TID 0000.0001) //            Max. X spins =              0
(PID.TID 0000.0001) //            Min. X spins =     1000000000
(PID.TID 0000.0001) //          Total. X spins =              0
(PID.TID 0000.0001) //            Avg. X spins =       0.00E+00
(PID.TID 0000.0001) //         No. Y exchanges =              0
(PID.TID 0000.0001) //            Max. Y spins =              0
(PID.TID 0000.0001) //            Min. Y spins =     1000000000
(PID.TID 0000.0001) //          Total. Y spins =              0
(PID.TID 0000.0001) //            Avg. Y spins =       0.00E+00
(PID.TID 0000.0001) // o Tile number: 000107
(PID.TID 0000.0001) //         No. X exchanges =              0
(PID.TID 0000.0001) //            Max. X spins =              0
(PID.TID 0000.0001) //            Min. X spins =     1000000000
(PID.TID 0000.0001) //          Total. X spins =              0
(PID.TID 0000.0001) //            Avg. X spins =       0.00E+00
(PID.TID 0000.0001) //         No. Y exchanges =              0
(PID.TID 0000.0001) //            Max. Y spins =              0
(PID.TID 0000.0001) //            Min. Y spins =     1000000000
(PID.TID 0000.0001) //          Total. Y spins =              0
(PID.TID 0000.0001) //            Avg. Y spins =       0.00E+00
(PID.TID 0000.0001) // o Tile number: 000108
(PID.TID 0000.0001) //         No. X exchanges =              0
(PID.TID 0000.0001) //            Max. X spins =              0
(PID.TID 0000.0001) //            Min. X spins =     1000000000
(PID.TID 0000.0001) //          Total. X spins =              0
(PID.TID 0000.0001) //            Avg. X spins =       0.00E+00
(PID.TID 0000.0001) //         No. Y exchanges =              0
(PID.TID 0000.0001) //            Max. Y spins =              0
(PID.TID 0000.0001) //            Min. Y spins =     1000000000
(PID.TID 0000.0001) //          Total. Y spins =              0
(PID.TID 0000.0001) //            Avg. Y spins =       0.00E+00
(PID.TID 0000.0001) // o Tile number: 000109
(PID.TID 0000.0001) //         No. X exchanges =              0
(PID.TID 0000.0001) //            Max. X spins =              0
(PID.TID 0000.0001) //            Min. X spins =     1000000000
(PID.TID 0000.0001) //          Total. X spins =              0
(PID.TID 0000.0001) //            Avg. X spins =       0.00E+00
(PID.TID 0000.0001) //         No. Y exchanges =              0
(PID.TID 0000.0001) //            Max. Y spins =              0
(PID.TID 0000.0001) //            Min. Y spins =     1000000000
(PID.TID 0000.0001) //          Total. Y spins =              0
(PID.TID 0000.0001) //            Avg. Y spins =       0.00E+00
(PID.TID 0000.0001) // o Tile number: 000110
(PID.TID 0000.0001) //         No. X exchanges =              0
(PID.TID 0000.0001) //            Max. X spins =              0
(PID.TID 0000.0001) //            Min. X spins =     1000000000
(PID.TID 0000.0001) //          Total. X spins =              0
(PID.TID 0000.0001) //            Avg. X spins =       0.00E+00
(PID.TID 0000.0001) //         No. Y exchanges =              0
(PID.TID 0000.0001) //            Max. Y spins =              0
(PID.TID 0000.0001) //            Min. Y spins =     1000000000
(PID.TID 0000.0001) //          Total. Y spins =              0
(PID.TID 0000.0001) //            Avg. Y spins =       0.00E+00
(PID.TID 0000.0001) // o Tile number: 000111
(PID.TID 0000.0001) //         No. X exchanges =              0
(PID.TID 0000.0001) //            Max. X spins =              0
(PID.TID 0000.0001) //            Min. X spins =     1000000000
(PID.TID 0000.0001) //          Total. X spins =              0
(PID.TID 0000.0001) //            Avg. X spins =       0.00E+00
(PID.TID 0000.0001) //         No. Y exchanges =              0
(PID.TID 0000.0001) //            Max. Y spins =              0
(PID.TID 0000.0001) //            Min. Y spins =     1000000000
(PID.TID 0000.0001) //          Total. Y spins =              0
(PID.TID 0000.0001) //            Avg. Y spins =       0.00E+00
(PID.TID 0000.0001) // o Tile number: 000112
(PID.TID 0000.0001) //         No. X exchanges =              0
(PID.TID 0000.0001) //            Max. X spins =              0
(PID.TID 0000.0001) //            Min. X spins =     1000000000
(PID.TID 0000.0001) //          Total. X spins =              0
(PID.TID 0000.0001) //            Avg. X spins =       0.00E+00
(PID.TID 0000.0001) //         No. Y exchanges =              0
(PID.TID 0000.0001) //            Max. Y spins =              0
(PID.TID 0000.0001) //            Min. Y spins =     1000000000
(PID.TID 0000.0001) //          Total. Y spins =              0
(PID.TID 0000.0001) //            Avg. Y spins =       0.00E+00
(PID.TID 0000.0001) // o Tile number: 000113
(PID.TID 0000.0001) //         No. X exchanges =              0
(PID.TID 0000.0001) //            Max. X spins =              0
(PID.TID 0000.0001) //            Min. X spins =     1000000000
(PID.TID 0000.0001) //          Total. X spins =              0
(PID.TID 0000.0001) //            Avg. X spins =       0.00E+00
(PID.TID 0000.0001) //         No. Y exchanges =              0
(PID.TID 0000.0001) //            Max. Y spins =              0
(PID.TID 0000.0001) //            Min. Y spins =     1000000000
(PID.TID 0000.0001) //          Total. Y spins =              0
(PID.TID 0000.0001) //            Avg. Y spins =       0.00E+00
(PID.TID 0000.0001) // o Tile number: 000114
(PID.TID 0000.0001) //         No. X exchanges =              0
(PID.TID 0000.0001) //            Max. X spins =              0
(PID.TID 0000.0001) //            Min. X spins =     1000000000
(PID.TID 0000.0001) //          Total. X spins =              0
(PID.TID 0000.0001) //            Avg. X spins =       0.00E+00
(PID.TID 0000.0001) //         No. Y exchanges =              0
(PID.TID 0000.0001) //            Max. Y spins =              0
(PID.TID 0000.0001) //            Min. Y spins =     1000000000
(PID.TID 0000.0001) //          Total. Y spins =              0
(PID.TID 0000.0001) //            Avg. Y spins =       0.00E+00
(PID.TID 0000.0001) // o Tile number: 000115
(PID.TID 0000.0001) //         No. X exchanges =              0
(PID.TID 0000.0001) //            Max. X spins =              0
(PID.TID 0000.0001) //            Min. X spins =     1000000000
(PID.TID 0000.0001) //          Total. X spins =              0
(PID.TID 0000.0001) //            Avg. X spins =       0.00E+00
(PID.TID 0000.0001) //         No. Y exchanges =              0
(PID.TID 0000.0001) //            Max. Y spins =              0
(PID.TID 0000.0001) //            Min. Y spins =     1000000000
(PID.TID 0000.0001) //          Total. Y spins =              0
(PID.TID 0000.0001) //            Avg. Y spins =       0.00E+00
(PID.TID 0000.0001) // o Tile number: 000116
(PID.TID 0000.0001) //         No. X exchanges =              0
(PID.TID 0000.0001) //            Max. X spins =              0
(PID.TID 0000.0001) //            Min. X spins =     1000000000
(PID.TID 0000.0001) //          Total. X spins =              0
(PID.TID 0000.0001) //            Avg. X spins =       0.00E+00
(PID.TID 0000.0001) //         No. Y exchanges =              0
(PID.TID 0000.0001) //            Max. Y spins =              0
(PID.TID 0000.0001) //            Min. Y spins =     1000000000
(PID.TID 0000.0001) //          Total. Y spins =              0
(PID.TID 0000.0001) //            Avg. Y spins =       0.00E+00
(PID.TID 0000.0001) // o Tile number: 000117
(PID.TID 0000.0001) //         No. X exchanges =              0
(PID.TID 0000.0001) //            Max. X spins =              0
(PID.TID 0000.0001) //            Min. X spins =     1000000000
(PID.TID 0000.0001) //          Total. X spins =              0
(PID.TID 0000.0001) //            Avg. X spins =       0.00E+00
(PID.TID 0000.0001) //         No. Y exchanges =              0
(PID.TID 0000.0001) //            Max. Y spins =              0
(PID.TID 0000.0001) //            Min. Y spins =     1000000000
(PID.TID 0000.0001) //          Total. Y spins =              0
(PID.TID 0000.0001) //            Avg. Y spins =       0.00E+00
(PID.TID 0000.0001) // o Tile number: 000118
(PID.TID 0000.0001) //         No. X exchanges =              0
(PID.TID 0000.0001) //            Max. X spins =              0
(PID.TID 0000.0001) //            Min. X spins =     1000000000
(PID.TID 0000.0001) //          Total. X spins =              0
(PID.TID 0000.0001) //            Avg. X spins =       0.00E+00
(PID.TID 0000.0001) //         No. Y exchanges =              0
(PID.TID 0000.0001) //            Max. Y spins =              0
(PID.TID 0000.0001) //            Min. Y spins =     1000000000
(PID.TID 0000.0001) //          Total. Y spins =              0
(PID.TID 0000.0001) //            Avg. Y spins =       0.00E+00
(PID.TID 0000.0001) // o Tile number: 000119
(PID.TID 0000.0001) //         No. X exchanges =              0
(PID.TID 0000.0001) //            Max. X spins =              0
(PID.TID 0000.0001) //            Min. X spins =     1000000000
(PID.TID 0000.0001) //          Total. X spins =              0
(PID.TID 0000.0001) //            Avg. X spins =       0.00E+00
(PID.TID 0000.0001) //         No. Y exchanges =              0
(PID.TID 0000.0001) //            Max. Y spins =              0
(PID.TID 0000.0001) //            Min. Y spins =     1000000000
(PID.TID 0000.0001) //          Total. Y spins =              0
(PID.TID 0000.0001) //            Avg. Y spins =       0.00E+00
(PID.TID 0000.0001) // o Tile number: 000120
(PID.TID 0000.0001) //         No. X exchanges =              0
(PID.TID 0000.0001) //            Max. X spins =              0
(PID.TID 0000.0001) //            Min. X spins =     1000000000
(PID.TID 0000.0001) //          Total. X spins =              0
(PID.TID 0000.0001) //            Avg. X spins =       0.00E+00
(PID.TID 0000.0001) //         No. Y exchanges =              0
(PID.TID 0000.0001) //            Max. Y spins =              0
(PID.TID 0000.0001) //            Min. Y spins =     1000000000
(PID.TID 0000.0001) //          Total. Y spins =              0
(PID.TID 0000.0001) //            Avg. Y spins =       0.00E+00
(PID.TID 0000.0001) // o Tile number: 000121
(PID.TID 0000.0001) //         No. X exchanges =              0
(PID.TID 0000.0001) //            Max. X spins =              0
(PID.TID 0000.0001) //            Min. X spins =     1000000000
(PID.TID 0000.0001) //          Total. X spins =              0
(PID.TID 0000.0001) //            Avg. X spins =       0.00E+00
(PID.TID 0000.0001) //         No. Y exchanges =              0
(PID.TID 0000.0001) //            Max. Y spins =              0
(PID.TID 0000.0001) //            Min. Y spins =     1000000000
(PID.TID 0000.0001) //          Total. Y spins =              0
(PID.TID 0000.0001) //            Avg. Y spins =       0.00E+00
(PID.TID 0000.0001) // o Tile number: 000122
(PID.TID 0000.0001) //         No. X exchanges =              0
(PID.TID 0000.0001) //            Max. X spins =              0
(PID.TID 0000.0001) //            Min. X spins =     1000000000
(PID.TID 0000.0001) //          Total. X spins =              0
(PID.TID 0000.0001) //            Avg. X spins =       0.00E+00
(PID.TID 0000.0001) //         No. Y exchanges =              0
(PID.TID 0000.0001) //            Max. Y spins =              0
(PID.TID 0000.0001) //            Min. Y spins =     1000000000
(PID.TID 0000.0001) //          Total. Y spins =              0
(PID.TID 0000.0001) //            Avg. Y spins =       0.00E+00
(PID.TID 0000.0001) // o Tile number: 000123
(PID.TID 0000.0001) //         No. X exchanges =              0
(PID.TID 0000.0001) //            Max. X spins =              0
(PID.TID 0000.0001) //            Min. X spins =     1000000000
(PID.TID 0000.0001) //          Total. X spins =              0
(PID.TID 0000.0001) //            Avg. X spins =       0.00E+00
(PID.TID 0000.0001) //         No. Y exchanges =              0
(PID.TID 0000.0001) //            Max. Y spins =              0
(PID.TID 0000.0001) //            Min. Y spins =     1000000000
(PID.TID 0000.0001) //          Total. Y spins =              0
(PID.TID 0000.0001) //            Avg. Y spins =       0.00E+00
(PID.TID 0000.0001) // o Tile number: 000124
(PID.TID 0000.0001) //         No. X exchanges =              0
(PID.TID 0000.0001) //            Max. X spins =              0
(PID.TID 0000.0001) //            Min. X spins =     1000000000
(PID.TID 0000.0001) //          Total. X spins =              0
(PID.TID 0000.0001) //            Avg. X spins =       0.00E+00
(PID.TID 0000.0001) //         No. Y exchanges =              0
(PID.TID 0000.0001) //            Max. Y spins =              0
(PID.TID 0000.0001) //            Min. Y spins =     1000000000
(PID.TID 0000.0001) //          Total. Y spins =              0
(PID.TID 0000.0001) //            Avg. Y spins =       0.00E+00
(PID.TID 0000.0001) // o Tile number: 000125
(PID.TID 0000.0001) //         No. X exchanges =              0
(PID.TID 0000.0001) //            Max. X spins =              0
(PID.TID 0000.0001) //            Min. X spins =     1000000000
(PID.TID 0000.0001) //          Total. X spins =              0
(PID.TID 0000.0001) //            Avg. X spins =       0.00E+00
(PID.TID 0000.0001) //         No. Y exchanges =              0
(PID.TID 0000.0001) //            Max. Y spins =              0
(PID.TID 0000.0001) //            Min. Y spins =     1000000000
(PID.TID 0000.0001) //          Total. Y spins =              0
(PID.TID 0000.0001) //            Avg. Y spins =       0.00E+00
(PID.TID 0000.0001) // o Tile number: 000126
(PID.TID 0000.0001) //         No. X exchanges =              0
(PID.TID 0000.0001) //            Max. X spins =              0
(PID.TID 0000.0001) //            Min. X spins =     1000000000
(PID.TID 0000.0001) //          Total. X spins =              0
(PID.TID 0000.0001) //            Avg. X spins =       0.00E+00
(PID.TID 0000.0001) //         No. Y exchanges =              0
(PID.TID 0000.0001) //            Max. Y spins =              0
(PID.TID 0000.0001) //            Min. Y spins =     1000000000
(PID.TID 0000.0001) //          Total. Y spins =              0
(PID.TID 0000.0001) //            Avg. Y spins =       0.00E+00
(PID.TID 0000.0001) // o Tile number: 000127
(PID.TID 0000.0001) //         No. X exchanges =              0
(PID.TID 0000.0001) //            Max. X spins =              0
(PID.TID 0000.0001) //            Min. X spins =     1000000000
(PID.TID 0000.0001) //          Total. X spins =              0
(PID.TID 0000.0001) //            Avg. X spins =       0.00E+00
(PID.TID 0000.0001) //         No. Y exchanges =              0
(PID.TID 0000.0001) //            Max. Y spins =              0
(PID.TID 0000.0001) //            Min. Y spins =     1000000000
(PID.TID 0000.0001) //          Total. Y spins =              0
(PID.TID 0000.0001) //            Avg. Y spins =       0.00E+00
(PID.TID 0000.0001) // o Tile number: 000128
(PID.TID 0000.0001) //         No. X exchanges =              0
(PID.TID 0000.0001) //            Max. X spins =              0
(PID.TID 0000.0001) //            Min. X spins =     1000000000
(PID.TID 0000.0001) //          Total. X spins =              0
(PID.TID 0000.0001) //            Avg. X spins =       0.00E+00
(PID.TID 0000.0001) //         No. Y exchanges =              0
(PID.TID 0000.0001) //            Max. Y spins =              0
(PID.TID 0000.0001) //            Min. Y spins =     1000000000
(PID.TID 0000.0001) //          Total. Y spins =              0
(PID.TID 0000.0001) //            Avg. Y spins =       0.00E+00
(PID.TID 0000.0001) // o Tile number: 000129
(PID.TID 0000.0001) //         No. X exchanges =              0
(PID.TID 0000.0001) //            Max. X spins =              0
(PID.TID 0000.0001) //            Min. X spins =     1000000000
(PID.TID 0000.0001) //          Total. X spins =              0
(PID.TID 0000.0001) //            Avg. X spins =       0.00E+00
(PID.TID 0000.0001) //         No. Y exchanges =              0
(PID.TID 0000.0001) //            Max. Y spins =              0
(PID.TID 0000.0001) //            Min. Y spins =     1000000000
(PID.TID 0000.0001) //          Total. Y spins =              0
(PID.TID 0000.0001) //            Avg. Y spins =       0.00E+00
(PID.TID 0000.0001) // o Tile number: 000130
(PID.TID 0000.0001) //         No. X exchanges =              0
(PID.TID 0000.0001) //            Max. X spins =              0
(PID.TID 0000.0001) //            Min. X spins =     1000000000
(PID.TID 0000.0001) //          Total. X spins =              0
(PID.TID 0000.0001) //            Avg. X spins =       0.00E+00
(PID.TID 0000.0001) //         No. Y exchanges =              0
(PID.TID 0000.0001) //            Max. Y spins =              0
(PID.TID 0000.0001) //            Min. Y spins =     1000000000
(PID.TID 0000.0001) //          Total. Y spins =              0
(PID.TID 0000.0001) //            Avg. Y spins =       0.00E+00
(PID.TID 0000.0001) // o Tile number: 000131
(PID.TID 0000.0001) //         No. X exchanges =              0
(PID.TID 0000.0001) //            Max. X spins =              0
(PID.TID 0000.0001) //            Min. X spins =     1000000000
(PID.TID 0000.0001) //          Total. X spins =              0
(PID.TID 0000.0001) //            Avg. X spins =       0.00E+00
(PID.TID 0000.0001) //         No. Y exchanges =              0
(PID.TID 0000.0001) //            Max. Y spins =              0
(PID.TID 0000.0001) //            Min. Y spins =     1000000000
(PID.TID 0000.0001) //          Total. Y spins =              0
(PID.TID 0000.0001) //            Avg. Y spins =       0.00E+00
(PID.TID 0000.0001) // o Tile number: 000132
(PID.TID 0000.0001) //         No. X exchanges =              0
(PID.TID 0000.0001) //            Max. X spins =              0
(PID.TID 0000.0001) //            Min. X spins =     1000000000
(PID.TID 0000.0001) //          Total. X spins =              0
(PID.TID 0000.0001) //            Avg. X spins =       0.00E+00
(PID.TID 0000.0001) //         No. Y exchanges =              0
(PID.TID 0000.0001) //            Max. Y spins =              0
(PID.TID 0000.0001) //            Min. Y spins =     1000000000
(PID.TID 0000.0001) //          Total. Y spins =              0
(PID.TID 0000.0001) //            Avg. Y spins =       0.00E+00
(PID.TID 0000.0001) // o Tile number: 000133
(PID.TID 0000.0001) //         No. X exchanges =              0
(PID.TID 0000.0001) //            Max. X spins =              0
(PID.TID 0000.0001) //            Min. X spins =     1000000000
(PID.TID 0000.0001) //          Total. X spins =              0
(PID.TID 0000.0001) //            Avg. X spins =       0.00E+00
(PID.TID 0000.0001) //         No. Y exchanges =              0
(PID.TID 0000.0001) //            Max. Y spins =              0
(PID.TID 0000.0001) //            Min. Y spins =     1000000000
(PID.TID 0000.0001) //          Total. Y spins =              0
(PID.TID 0000.0001) //            Avg. Y spins =       0.00E+00
(PID.TID 0000.0001) // o Tile number: 000134
(PID.TID 0000.0001) //         No. X exchanges =              0
(PID.TID 0000.0001) //            Max. X spins =              0
(PID.TID 0000.0001) //            Min. X spins =     1000000000
(PID.TID 0000.0001) //          Total. X spins =              0
(PID.TID 0000.0001) //            Avg. X spins =       0.00E+00
(PID.TID 0000.0001) //         No. Y exchanges =              0
(PID.TID 0000.0001) //            Max. Y spins =              0
(PID.TID 0000.0001) //            Min. Y spins =     1000000000
(PID.TID 0000.0001) //          Total. Y spins =              0
(PID.TID 0000.0001) //            Avg. Y spins =       0.00E+00
(PID.TID 0000.0001) // o Tile number: 000135
(PID.TID 0000.0001) //         No. X exchanges =              0
(PID.TID 0000.0001) //            Max. X spins =              0
(PID.TID 0000.0001) //            Min. X spins =     1000000000
(PID.TID 0000.0001) //          Total. X spins =              0
(PID.TID 0000.0001) //            Avg. X spins =       0.00E+00
(PID.TID 0000.0001) //         No. Y exchanges =              0
(PID.TID 0000.0001) //            Max. Y spins =              0
(PID.TID 0000.0001) //            Min. Y spins =     1000000000
(PID.TID 0000.0001) //          Total. Y spins =              0
(PID.TID 0000.0001) //            Avg. Y spins =       0.00E+00
(PID.TID 0000.0001) // o Tile number: 000136
(PID.TID 0000.0001) //         No. X exchanges =              0
(PID.TID 0000.0001) //            Max. X spins =              0
(PID.TID 0000.0001) //            Min. X spins =     1000000000
(PID.TID 0000.0001) //          Total. X spins =              0
(PID.TID 0000.0001) //            Avg. X spins =       0.00E+00
(PID.TID 0000.0001) //         No. Y exchanges =              0
(PID.TID 0000.0001) //            Max. Y spins =              0
(PID.TID 0000.0001) //            Min. Y spins =     1000000000
(PID.TID 0000.0001) //          Total. Y spins =              0
(PID.TID 0000.0001) //            Avg. Y spins =       0.00E+00
(PID.TID 0000.0001) // o Tile number: 000137
(PID.TID 0000.0001) //         No. X exchanges =              0
(PID.TID 0000.0001) //            Max. X spins =              0
(PID.TID 0000.0001) //            Min. X spins =     1000000000
(PID.TID 0000.0001) //          Total. X spins =              0
(PID.TID 0000.0001) //            Avg. X spins =       0.00E+00
(PID.TID 0000.0001) //         No. Y exchanges =              0
(PID.TID 0000.0001) //            Max. Y spins =              0
(PID.TID 0000.0001) //            Min. Y spins =     1000000000
(PID.TID 0000.0001) //          Total. Y spins =              0
(PID.TID 0000.0001) //            Avg. Y spins =       0.00E+00
(PID.TID 0000.0001) // o Tile number: 000138
(PID.TID 0000.0001) //         No. X exchanges =              0
(PID.TID 0000.0001) //            Max. X spins =              0
(PID.TID 0000.0001) //            Min. X spins =     1000000000
(PID.TID 0000.0001) //          Total. X spins =              0
(PID.TID 0000.0001) //            Avg. X spins =       0.00E+00
(PID.TID 0000.0001) //         No. Y exchanges =              0
(PID.TID 0000.0001) //            Max. Y spins =              0
(PID.TID 0000.0001) //            Min. Y spins =     1000000000
(PID.TID 0000.0001) //          Total. Y spins =              0
(PID.TID 0000.0001) //            Avg. Y spins =       0.00E+00
(PID.TID 0000.0001) // o Tile number: 000139
(PID.TID 0000.0001) //         No. X exchanges =              0
(PID.TID 0000.0001) //            Max. X spins =              0
(PID.TID 0000.0001) //            Min. X spins =     1000000000
(PID.TID 0000.0001) //          Total. X spins =              0
(PID.TID 0000.0001) //            Avg. X spins =       0.00E+00
(PID.TID 0000.0001) //         No. Y exchanges =              0
(PID.TID 0000.0001) //            Max. Y spins =              0
(PID.TID 0000.0001) //            Min. Y spins =     1000000000
(PID.TID 0000.0001) //          Total. Y spins =              0
(PID.TID 0000.0001) //            Avg. Y spins =       0.00E+00
(PID.TID 0000.0001) // o Tile number: 000140
(PID.TID 0000.0001) //         No. X exchanges =              0
(PID.TID 0000.0001) //            Max. X spins =              0
(PID.TID 0000.0001) //            Min. X spins =     1000000000
(PID.TID 0000.0001) //          Total. X spins =              0
(PID.TID 0000.0001) //            Avg. X spins =       0.00E+00
(PID.TID 0000.0001) //         No. Y exchanges =              0
(PID.TID 0000.0001) //            Max. Y spins =              0
(PID.TID 0000.0001) //            Min. Y spins =     1000000000
(PID.TID 0000.0001) //          Total. Y spins =              0
(PID.TID 0000.0001) //            Avg. Y spins =       0.00E+00
(PID.TID 0000.0001) // o Tile number: 000141
(PID.TID 0000.0001) //         No. X exchanges =              0
(PID.TID 0000.0001) //            Max. X spins =              0
(PID.TID 0000.0001) //            Min. X spins =     1000000000
(PID.TID 0000.0001) //          Total. X spins =              0
(PID.TID 0000.0001) //            Avg. X spins =       0.00E+00
(PID.TID 0000.0001) //         No. Y exchanges =              0
(PID.TID 0000.0001) //            Max. Y spins =              0
(PID.TID 0000.0001) //            Min. Y spins =     1000000000
(PID.TID 0000.0001) //          Total. Y spins =              0
(PID.TID 0000.0001) //            Avg. Y spins =       0.00E+00
(PID.TID 0000.0001) // o Tile number: 000142
(PID.TID 0000.0001) //         No. X exchanges =              0
(PID.TID 0000.0001) //            Max. X spins =              0
(PID.TID 0000.0001) //            Min. X spins =     1000000000
(PID.TID 0000.0001) //          Total. X spins =              0
(PID.TID 0000.0001) //            Avg. X spins =       0.00E+00
(PID.TID 0000.0001) //         No. Y exchanges =              0
(PID.TID 0000.0001) //            Max. Y spins =              0
(PID.TID 0000.0001) //            Min. Y spins =     1000000000
(PID.TID 0000.0001) //          Total. Y spins =              0
(PID.TID 0000.0001) //            Avg. Y spins =       0.00E+00
(PID.TID 0000.0001) // o Tile number: 000143
(PID.TID 0000.0001) //         No. X exchanges =              0
(PID.TID 0000.0001) //            Max. X spins =              0
(PID.TID 0000.0001) //            Min. X spins =     1000000000
(PID.TID 0000.0001) //          Total. X spins =              0
(PID.TID 0000.0001) //            Avg. X spins =       0.00E+00
(PID.TID 0000.0001) //         No. Y exchanges =              0
(PID.TID 0000.0001) //            Max. Y spins =              0
(PID.TID 0000.0001) //            Min. Y spins =     1000000000
(PID.TID 0000.0001) //          Total. Y spins =              0
(PID.TID 0000.0001) //            Avg. Y spins =       0.00E+00
(PID.TID 0000.0001) // o Tile number: 000144
(PID.TID 0000.0001) //         No. X exchanges =              0
(PID.TID 0000.0001) //            Max. X spins =              0
(PID.TID 0000.0001) //            Min. X spins =     1000000000
(PID.TID 0000.0001) //          Total. X spins =              0
(PID.TID 0000.0001) //            Avg. X spins =       0.00E+00
(PID.TID 0000.0001) //         No. Y exchanges =              0
(PID.TID 0000.0001) //            Max. Y spins =              0
(PID.TID 0000.0001) //            Min. Y spins =     1000000000
(PID.TID 0000.0001) //          Total. Y spins =              0
(PID.TID 0000.0001) //            Avg. Y spins =       0.00E+00
(PID.TID 0000.0001) // o Tile number: 000145
(PID.TID 0000.0001) //         No. X exchanges =              0
(PID.TID 0000.0001) //            Max. X spins =              0
(PID.TID 0000.0001) //            Min. X spins =     1000000000
(PID.TID 0000.0001) //          Total. X spins =              0
(PID.TID 0000.0001) //            Avg. X spins =       0.00E+00
(PID.TID 0000.0001) //         No. Y exchanges =              0
(PID.TID 0000.0001) //            Max. Y spins =              0
(PID.TID 0000.0001) //            Min. Y spins =     1000000000
(PID.TID 0000.0001) //          Total. Y spins =              0
(PID.TID 0000.0001) //            Avg. Y spins =       0.00E+00
(PID.TID 0000.0001) // o Tile number: 000146
(PID.TID 0000.0001) //         No. X exchanges =              0
(PID.TID 0000.0001) //            Max. X spins =              0
(PID.TID 0000.0001) //            Min. X spins =     1000000000
(PID.TID 0000.0001) //          Total. X spins =              0
(PID.TID 0000.0001) //            Avg. X spins =       0.00E+00
(PID.TID 0000.0001) //         No. Y exchanges =              0
(PID.TID 0000.0001) //            Max. Y spins =              0
(PID.TID 0000.0001) //            Min. Y spins =     1000000000
(PID.TID 0000.0001) //          Total. Y spins =              0
(PID.TID 0000.0001) //            Avg. Y spins =       0.00E+00
(PID.TID 0000.0001) // o Tile number: 000147
(PID.TID 0000.0001) //         No. X exchanges =              0
(PID.TID 0000.0001) //            Max. X spins =              0
(PID.TID 0000.0001) //            Min. X spins =     1000000000
(PID.TID 0000.0001) //          Total. X spins =              0
(PID.TID 0000.0001) //            Avg. X spins =       0.00E+00
(PID.TID 0000.0001) //         No. Y exchanges =              0
(PID.TID 0000.0001) //            Max. Y spins =              0
(PID.TID 0000.0001) //            Min. Y spins =     1000000000
(PID.TID 0000.0001) //          Total. Y spins =              0
(PID.TID 0000.0001) //            Avg. Y spins =       0.00E+00
(PID.TID 0000.0001) // o Tile number: 000148
(PID.TID 0000.0001) //         No. X exchanges =              0
(PID.TID 0000.0001) //            Max. X spins =              0
(PID.TID 0000.0001) //            Min. X spins =     1000000000
(PID.TID 0000.0001) //          Total. X spins =              0
(PID.TID 0000.0001) //            Avg. X spins =       0.00E+00
(PID.TID 0000.0001) //         No. Y exchanges =              0
(PID.TID 0000.0001) //            Max. Y spins =              0
(PID.TID 0000.0001) //            Min. Y spins =     1000000000
(PID.TID 0000.0001) //          Total. Y spins =              0
(PID.TID 0000.0001) //            Avg. Y spins =       0.00E+00
(PID.TID 0000.0001) // o Tile number: 000149
(PID.TID 0000.0001) //         No. X exchanges =              0
(PID.TID 0000.0001) //            Max. X spins =              0
(PID.TID 0000.0001) //            Min. X spins =     1000000000
(PID.TID 0000.0001) //          Total. X spins =              0
(PID.TID 0000.0001) //            Avg. X spins =       0.00E+00
(PID.TID 0000.0001) //         No. Y exchanges =              0
(PID.TID 0000.0001) //            Max. Y spins =              0
(PID.TID 0000.0001) //            Min. Y spins =     1000000000
(PID.TID 0000.0001) //          Total. Y spins =              0
(PID.TID 0000.0001) //            Avg. Y spins =       0.00E+00
(PID.TID 0000.0001) // o Tile number: 000150
(PID.TID 0000.0001) //         No. X exchanges =              0
(PID.TID 0000.0001) //            Max. X spins =              0
(PID.TID 0000.0001) //            Min. X spins =     1000000000
(PID.TID 0000.0001) //          Total. X spins =              0
(PID.TID 0000.0001) //            Avg. X spins =       0.00E+00
(PID.TID 0000.0001) //         No. Y exchanges =              0
(PID.TID 0000.0001) //            Max. Y spins =              0
(PID.TID 0000.0001) //            Min. Y spins =     1000000000
(PID.TID 0000.0001) //          Total. Y spins =              0
(PID.TID 0000.0001) //            Avg. Y spins =       0.00E+00
(PID.TID 0000.0001) // o Tile number: 000151
(PID.TID 0000.0001) //         No. X exchanges =              0
(PID.TID 0000.0001) //            Max. X spins =              0
(PID.TID 0000.0001) //            Min. X spins =     1000000000
(PID.TID 0000.0001) //          Total. X spins =              0
(PID.TID 0000.0001) //            Avg. X spins =       0.00E+00
(PID.TID 0000.0001) //         No. Y exchanges =              0
(PID.TID 0000.0001) //            Max. Y spins =              0
(PID.TID 0000.0001) //            Min. Y spins =     1000000000
(PID.TID 0000.0001) //          Total. Y spins =              0
(PID.TID 0000.0001) //            Avg. Y spins =       0.00E+00
(PID.TID 0000.0001) // o Tile number: 000152
(PID.TID 0000.0001) //         No. X exchanges =              0
(PID.TID 0000.0001) //            Max. X spins =              0
(PID.TID 0000.0001) //            Min. X spins =     1000000000
(PID.TID 0000.0001) //          Total. X spins =              0
(PID.TID 0000.0001) //            Avg. X spins =       0.00E+00
(PID.TID 0000.0001) //         No. Y exchanges =              0
(PID.TID 0000.0001) //            Max. Y spins =              0
(PID.TID 0000.0001) //            Min. Y spins =     1000000000
(PID.TID 0000.0001) //          Total. Y spins =              0
(PID.TID 0000.0001) //            Avg. Y spins =       0.00E+00
(PID.TID 0000.0001) // o Tile number: 000153
(PID.TID 0000.0001) //         No. X exchanges =              0
(PID.TID 0000.0001) //            Max. X spins =              0
(PID.TID 0000.0001) //            Min. X spins =     1000000000
(PID.TID 0000.0001) //          Total. X spins =              0
(PID.TID 0000.0001) //            Avg. X spins =       0.00E+00
(PID.TID 0000.0001) //         No. Y exchanges =              0
(PID.TID 0000.0001) //            Max. Y spins =              0
(PID.TID 0000.0001) //            Min. Y spins =     1000000000
(PID.TID 0000.0001) //          Total. Y spins =              0
(PID.TID 0000.0001) //            Avg. Y spins =       0.00E+00
(PID.TID 0000.0001) // o Tile number: 000154
(PID.TID 0000.0001) //         No. X exchanges =              0
(PID.TID 0000.0001) //            Max. X spins =              0
(PID.TID 0000.0001) //            Min. X spins =     1000000000
(PID.TID 0000.0001) //          Total. X spins =              0
(PID.TID 0000.0001) //            Avg. X spins =       0.00E+00
(PID.TID 0000.0001) //         No. Y exchanges =              0
(PID.TID 0000.0001) //            Max. Y spins =              0
(PID.TID 0000.0001) //            Min. Y spins =     1000000000
(PID.TID 0000.0001) //          Total. Y spins =              0
(PID.TID 0000.0001) //            Avg. Y spins =       0.00E+00
(PID.TID 0000.0001) // o Tile number: 000155
(PID.TID 0000.0001) //         No. X exchanges =              0
(PID.TID 0000.0001) //            Max. X spins =              0
(PID.TID 0000.0001) //            Min. X spins =     1000000000
(PID.TID 0000.0001) //          Total. X spins =              0
(PID.TID 0000.0001) //            Avg. X spins =       0.00E+00
(PID.TID 0000.0001) //         No. Y exchanges =              0
(PID.TID 0000.0001) //            Max. Y spins =              0
(PID.TID 0000.0001) //            Min. Y spins =     1000000000
(PID.TID 0000.0001) //          Total. Y spins =              0
(PID.TID 0000.0001) //            Avg. Y spins =       0.00E+00
(PID.TID 0000.0001) // o Tile number: 000156
(PID.TID 0000.0001) //         No. X exchanges =              0
(PID.TID 0000.0001) //            Max. X spins =              0
(PID.TID 0000.0001) //            Min. X spins =     1000000000
(PID.TID 0000.0001) //          Total. X spins =              0
(PID.TID 0000.0001) //            Avg. X spins =       0.00E+00
(PID.TID 0000.0001) //         No. Y exchanges =              0
(PID.TID 0000.0001) //            Max. Y spins =              0
(PID.TID 0000.0001) //            Min. Y spins =     1000000000
(PID.TID 0000.0001) //          Total. Y spins =              0
(PID.TID 0000.0001) //            Avg. Y spins =       0.00E+00
(PID.TID 0000.0001) // o Tile number: 000157
(PID.TID 0000.0001) //         No. X exchanges =              0
(PID.TID 0000.0001) //            Max. X spins =              0
(PID.TID 0000.0001) //            Min. X spins =     1000000000
(PID.TID 0000.0001) //          Total. X spins =              0
(PID.TID 0000.0001) //            Avg. X spins =       0.00E+00
(PID.TID 0000.0001) //         No. Y exchanges =              0
(PID.TID 0000.0001) //            Max. Y spins =              0
(PID.TID 0000.0001) //            Min. Y spins =     1000000000
(PID.TID 0000.0001) //          Total. Y spins =              0
(PID.TID 0000.0001) //            Avg. Y spins =       0.00E+00
(PID.TID 0000.0001) // o Tile number: 000158
(PID.TID 0000.0001) //         No. X exchanges =              0
(PID.TID 0000.0001) //            Max. X spins =              0
(PID.TID 0000.0001) //            Min. X spins =     1000000000
(PID.TID 0000.0001) //          Total. X spins =              0
(PID.TID 0000.0001) //            Avg. X spins =       0.00E+00
(PID.TID 0000.0001) //         No. Y exchanges =              0
(PID.TID 0000.0001) //            Max. Y spins =              0
(PID.TID 0000.0001) //            Min. Y spins =     1000000000
(PID.TID 0000.0001) //          Total. Y spins =              0
(PID.TID 0000.0001) //            Avg. Y spins =       0.00E+00
(PID.TID 0000.0001) // o Tile number: 000159
(PID.TID 0000.0001) //         No. X exchanges =              0
(PID.TID 0000.0001) //            Max. X spins =              0
(PID.TID 0000.0001) //            Min. X spins =     1000000000
(PID.TID 0000.0001) //          Total. X spins =              0
(PID.TID 0000.0001) //            Avg. X spins =       0.00E+00
(PID.TID 0000.0001) //         No. Y exchanges =              0
(PID.TID 0000.0001) //            Max. Y spins =              0
(PID.TID 0000.0001) //            Min. Y spins =     1000000000
(PID.TID 0000.0001) //          Total. Y spins =              0
(PID.TID 0000.0001) //            Avg. Y spins =       0.00E+00
(PID.TID 0000.0001) // o Tile number: 000160
(PID.TID 0000.0001) //         No. X exchanges =              0
(PID.TID 0000.0001) //            Max. X spins =              0
(PID.TID 0000.0001) //            Min. X spins =     1000000000
(PID.TID 0000.0001) //          Total. X spins =              0
(PID.TID 0000.0001) //            Avg. X spins =       0.00E+00
(PID.TID 0000.0001) //         No. Y exchanges =              0
(PID.TID 0000.0001) //            Max. Y spins =              0
(PID.TID 0000.0001) //            Min. Y spins =     1000000000
(PID.TID 0000.0001) //          Total. Y spins =              0
(PID.TID 0000.0001) //            Avg. Y spins =       0.00E+00
(PID.TID 0000.0001) // o Tile number: 000161
(PID.TID 0000.0001) //         No. X exchanges =              0
(PID.TID 0000.0001) //            Max. X spins =              0
(PID.TID 0000.0001) //            Min. X spins =     1000000000
(PID.TID 0000.0001) //          Total. X spins =              0
(PID.TID 0000.0001) //            Avg. X spins =       0.00E+00
(PID.TID 0000.0001) //         No. Y exchanges =              0
(PID.TID 0000.0001) //            Max. Y spins =              0
(PID.TID 0000.0001) //            Min. Y spins =     1000000000
(PID.TID 0000.0001) //          Total. Y spins =              0
(PID.TID 0000.0001) //            Avg. Y spins =       0.00E+00
(PID.TID 0000.0001) // o Tile number: 000162
(PID.TID 0000.0001) //         No. X exchanges =              0
(PID.TID 0000.0001) //            Max. X spins =              0
(PID.TID 0000.0001) //            Min. X spins =     1000000000
(PID.TID 0000.0001) //          Total. X spins =              0
(PID.TID 0000.0001) //            Avg. X spins =       0.00E+00
(PID.TID 0000.0001) //         No. Y exchanges =              0
(PID.TID 0000.0001) //            Max. Y spins =              0
(PID.TID 0000.0001) //            Min. Y spins =     1000000000
(PID.TID 0000.0001) //          Total. Y spins =              0
(PID.TID 0000.0001) //            Avg. Y spins =       0.00E+00
(PID.TID 0000.0001) // o Tile number: 000163
(PID.TID 0000.0001) //         No. X exchanges =              0
(PID.TID 0000.0001) //            Max. X spins =              0
(PID.TID 0000.0001) //            Min. X spins =     1000000000
(PID.TID 0000.0001) //          Total. X spins =              0
(PID.TID 0000.0001) //            Avg. X spins =       0.00E+00
(PID.TID 0000.0001) //         No. Y exchanges =              0
(PID.TID 0000.0001) //            Max. Y spins =              0
(PID.TID 0000.0001) //            Min. Y spins =     1000000000
(PID.TID 0000.0001) //          Total. Y spins =              0
(PID.TID 0000.0001) //            Avg. Y spins =       0.00E+00
(PID.TID 0000.0001) // o Tile number: 000164
(PID.TID 0000.0001) //         No. X exchanges =              0
(PID.TID 0000.0001) //            Max. X spins =              0
(PID.TID 0000.0001) //            Min. X spins =     1000000000
(PID.TID 0000.0001) //          Total. X spins =              0
(PID.TID 0000.0001) //            Avg. X spins =       0.00E+00
(PID.TID 0000.0001) //         No. Y exchanges =              0
(PID.TID 0000.0001) //            Max. Y spins =              0
(PID.TID 0000.0001) //            Min. Y spins =     1000000000
(PID.TID 0000.0001) //          Total. Y spins =              0
(PID.TID 0000.0001) //            Avg. Y spins =       0.00E+00
(PID.TID 0000.0001) // o Tile number: 000165
(PID.TID 0000.0001) //         No. X exchanges =              0
(PID.TID 0000.0001) //            Max. X spins =              0
(PID.TID 0000.0001) //            Min. X spins =     1000000000
(PID.TID 0000.0001) //          Total. X spins =              0
(PID.TID 0000.0001) //            Avg. X spins =       0.00E+00
(PID.TID 0000.0001) //         No. Y exchanges =              0
(PID.TID 0000.0001) //            Max. Y spins =              0
(PID.TID 0000.0001) //            Min. Y spins =     1000000000
(PID.TID 0000.0001) //          Total. Y spins =              0
(PID.TID 0000.0001) //            Avg. Y spins =       0.00E+00
(PID.TID 0000.0001) // o Tile number: 000166
(PID.TID 0000.0001) //         No. X exchanges =              0
(PID.TID 0000.0001) //            Max. X spins =              0
(PID.TID 0000.0001) //            Min. X spins =     1000000000
(PID.TID 0000.0001) //          Total. X spins =              0
(PID.TID 0000.0001) //            Avg. X spins =       0.00E+00
(PID.TID 0000.0001) //         No. Y exchanges =              0
(PID.TID 0000.0001) //            Max. Y spins =              0
(PID.TID 0000.0001) //            Min. Y spins =     1000000000
(PID.TID 0000.0001) //          Total. Y spins =              0
(PID.TID 0000.0001) //            Avg. Y spins =       0.00E+00
(PID.TID 0000.0001) // o Tile number: 000167
(PID.TID 0000.0001) //         No. X exchanges =              0
(PID.TID 0000.0001) //            Max. X spins =              0
(PID.TID 0000.0001) //            Min. X spins =     1000000000
(PID.TID 0000.0001) //          Total. X spins =              0
(PID.TID 0000.0001) //            Avg. X spins =       0.00E+00
(PID.TID 0000.0001) //         No. Y exchanges =              0
(PID.TID 0000.0001) //            Max. Y spins =              0
(PID.TID 0000.0001) //            Min. Y spins =     1000000000
(PID.TID 0000.0001) //          Total. Y spins =              0
(PID.TID 0000.0001) //            Avg. Y spins =       0.00E+00
(PID.TID 0000.0001) // o Tile number: 000168
(PID.TID 0000.0001) //         No. X exchanges =              0
(PID.TID 0000.0001) //            Max. X spins =              0
(PID.TID 0000.0001) //            Min. X spins =     1000000000
(PID.TID 0000.0001) //          Total. X spins =              0
(PID.TID 0000.0001) //            Avg. X spins =       0.00E+00
(PID.TID 0000.0001) //         No. Y exchanges =              0
(PID.TID 0000.0001) //            Max. Y spins =              0
(PID.TID 0000.0001) //            Min. Y spins =     1000000000
(PID.TID 0000.0001) //          Total. Y spins =              0
(PID.TID 0000.0001) //            Avg. Y spins =       0.00E+00
(PID.TID 0000.0001) // o Tile number: 000169
(PID.TID 0000.0001) //         No. X exchanges =              0
(PID.TID 0000.0001) //            Max. X spins =              0
(PID.TID 0000.0001) //            Min. X spins =     1000000000
(PID.TID 0000.0001) //          Total. X spins =              0
(PID.TID 0000.0001) //            Avg. X spins =       0.00E+00
(PID.TID 0000.0001) //         No. Y exchanges =              0
(PID.TID 0000.0001) //            Max. Y spins =              0
(PID.TID 0000.0001) //            Min. Y spins =     1000000000
(PID.TID 0000.0001) //          Total. Y spins =              0
(PID.TID 0000.0001) //            Avg. Y spins =       0.00E+00
(PID.TID 0000.0001) // o Tile number: 000170
(PID.TID 0000.0001) //         No. X exchanges =              0
(PID.TID 0000.0001) //            Max. X spins =              0
(PID.TID 0000.0001) //            Min. X spins =     1000000000
(PID.TID 0000.0001) //          Total. X spins =              0
(PID.TID 0000.0001) //            Avg. X spins =       0.00E+00
(PID.TID 0000.0001) //         No. Y exchanges =              0
(PID.TID 0000.0001) //            Max. Y spins =              0
(PID.TID 0000.0001) //            Min. Y spins =     1000000000
(PID.TID 0000.0001) //          Total. Y spins =              0
(PID.TID 0000.0001) //            Avg. Y spins =       0.00E+00
(PID.TID 0000.0001) // o Tile number: 000171
(PID.TID 0000.0001) //         No. X exchanges =              0
(PID.TID 0000.0001) //            Max. X spins =              0
(PID.TID 0000.0001) //            Min. X spins =     1000000000
(PID.TID 0000.0001) //          Total. X spins =              0
(PID.TID 0000.0001) //            Avg. X spins =       0.00E+00
(PID.TID 0000.0001) //         No. Y exchanges =              0
(PID.TID 0000.0001) //            Max. Y spins =              0
(PID.TID 0000.0001) //            Min. Y spins =     1000000000
(PID.TID 0000.0001) //          Total. Y spins =              0
(PID.TID 0000.0001) //            Avg. Y spins =       0.00E+00
(PID.TID 0000.0001) // o Tile number: 000172
(PID.TID 0000.0001) //         No. X exchanges =              0
(PID.TID 0000.0001) //            Max. X spins =              0
(PID.TID 0000.0001) //            Min. X spins =     1000000000
(PID.TID 0000.0001) //          Total. X spins =              0
(PID.TID 0000.0001) //            Avg. X spins =       0.00E+00
(PID.TID 0000.0001) //         No. Y exchanges =              0
(PID.TID 0000.0001) //            Max. Y spins =              0
(PID.TID 0000.0001) //            Min. Y spins =     1000000000
(PID.TID 0000.0001) //          Total. Y spins =              0
(PID.TID 0000.0001) //            Avg. Y spins =       0.00E+00
(PID.TID 0000.0001) // o Tile number: 000173
(PID.TID 0000.0001) //         No. X exchanges =              0
(PID.TID 0000.0001) //            Max. X spins =              0
(PID.TID 0000.0001) //            Min. X spins =     1000000000
(PID.TID 0000.0001) //          Total. X spins =              0
(PID.TID 0000.0001) //            Avg. X spins =       0.00E+00
(PID.TID 0000.0001) //         No. Y exchanges =              0
(PID.TID 0000.0001) //            Max. Y spins =              0
(PID.TID 0000.0001) //            Min. Y spins =     1000000000
(PID.TID 0000.0001) //          Total. Y spins =              0
(PID.TID 0000.0001) //            Avg. Y spins =       0.00E+00
(PID.TID 0000.0001) // o Tile number: 000174
(PID.TID 0000.0001) //         No. X exchanges =              0
(PID.TID 0000.0001) //            Max. X spins =              0
(PID.TID 0000.0001) //            Min. X spins =     1000000000
(PID.TID 0000.0001) //          Total. X spins =              0
(PID.TID 0000.0001) //            Avg. X spins =       0.00E+00
(PID.TID 0000.0001) //         No. Y exchanges =              0
(PID.TID 0000.0001) //            Max. Y spins =              0
(PID.TID 0000.0001) //            Min. Y spins =     1000000000
(PID.TID 0000.0001) //          Total. Y spins =              0
(PID.TID 0000.0001) //            Avg. Y spins =       0.00E+00
(PID.TID 0000.0001) // o Tile number: 000175
(PID.TID 0000.0001) //         No. X exchanges =              0
(PID.TID 0000.0001) //            Max. X spins =              0
(PID.TID 0000.0001) //            Min. X spins =     1000000000
(PID.TID 0000.0001) //          Total. X spins =              0
(PID.TID 0000.0001) //            Avg. X spins =       0.00E+00
(PID.TID 0000.0001) //         No. Y exchanges =              0
(PID.TID 0000.0001) //            Max. Y spins =              0
(PID.TID 0000.0001) //            Min. Y spins =     1000000000
(PID.TID 0000.0001) //          Total. Y spins =              0
(PID.TID 0000.0001) //            Avg. Y spins =       0.00E+00
(PID.TID 0000.0001) // o Tile number: 000176
(PID.TID 0000.0001) //         No. X exchanges =              0
(PID.TID 0000.0001) //            Max. X spins =              0
(PID.TID 0000.0001) //            Min. X spins =     1000000000
(PID.TID 0000.0001) //          Total. X spins =              0
(PID.TID 0000.0001) //            Avg. X spins =       0.00E+00
(PID.TID 0000.0001) //         No. Y exchanges =              0
(PID.TID 0000.0001) //            Max. Y spins =              0
(PID.TID 0000.0001) //            Min. Y spins =     1000000000
(PID.TID 0000.0001) //          Total. Y spins =              0
(PID.TID 0000.0001) //            Avg. Y spins =       0.00E+00
(PID.TID 0000.0001) // o Tile number: 000177
(PID.TID 0000.0001) //         No. X exchanges =              0
(PID.TID 0000.0001) //            Max. X spins =              0
(PID.TID 0000.0001) //            Min. X spins =     1000000000
(PID.TID 0000.0001) //          Total. X spins =              0
(PID.TID 0000.0001) //            Avg. X spins =       0.00E+00
(PID.TID 0000.0001) //         No. Y exchanges =              0
(PID.TID 0000.0001) //            Max. Y spins =              0
(PID.TID 0000.0001) //            Min. Y spins =     1000000000
(PID.TID 0000.0001) //          Total. Y spins =              0
(PID.TID 0000.0001) //            Avg. Y spins =       0.00E+00
(PID.TID 0000.0001) // o Tile number: 000178
(PID.TID 0000.0001) //         No. X exchanges =              0
(PID.TID 0000.0001) //            Max. X spins =              0
(PID.TID 0000.0001) //            Min. X spins =     1000000000
(PID.TID 0000.0001) //          Total. X spins =              0
(PID.TID 0000.0001) //            Avg. X spins =       0.00E+00
(PID.TID 0000.0001) //         No. Y exchanges =              0
(PID.TID 0000.0001) //            Max. Y spins =              0
(PID.TID 0000.0001) //            Min. Y spins =     1000000000
(PID.TID 0000.0001) //          Total. Y spins =              0
(PID.TID 0000.0001) //            Avg. Y spins =       0.00E+00
(PID.TID 0000.0001) // o Tile number: 000179
(PID.TID 0000.0001) //         No. X exchanges =              0
(PID.TID 0000.0001) //            Max. X spins =              0
(PID.TID 0000.0001) //            Min. X spins =     1000000000
(PID.TID 0000.0001) //          Total. X spins =              0
(PID.TID 0000.0001) //            Avg. X spins =       0.00E+00
(PID.TID 0000.0001) //         No. Y exchanges =              0
(PID.TID 0000.0001) //            Max. Y spins =              0
(PID.TID 0000.0001) //            Min. Y spins =     1000000000
(PID.TID 0000.0001) //          Total. Y spins =              0
(PID.TID 0000.0001) //            Avg. Y spins =       0.00E+00
(PID.TID 0000.0001) // o Tile number: 000180
(PID.TID 0000.0001) //         No. X exchanges =              0
(PID.TID 0000.0001) //            Max. X spins =              0
(PID.TID 0000.0001) //            Min. X spins =     1000000000
(PID.TID 0000.0001) //          Total. X spins =              0
(PID.TID 0000.0001) //            Avg. X spins =       0.00E+00
(PID.TID 0000.0001) //         No. Y exchanges =              0
(PID.TID 0000.0001) //            Max. Y spins =              0
(PID.TID 0000.0001) //            Min. Y spins =     1000000000
(PID.TID 0000.0001) //          Total. Y spins =              0
(PID.TID 0000.0001) //            Avg. Y spins =       0.00E+00
(PID.TID 0000.0001) // o Tile number: 000181
(PID.TID 0000.0001) //         No. X exchanges =              0
(PID.TID 0000.0001) //            Max. X spins =              0
(PID.TID 0000.0001) //            Min. X spins =     1000000000
(PID.TID 0000.0001) //          Total. X spins =              0
(PID.TID 0000.0001) //            Avg. X spins =       0.00E+00
(PID.TID 0000.0001) //         No. Y exchanges =              0
(PID.TID 0000.0001) //            Max. Y spins =              0
(PID.TID 0000.0001) //            Min. Y spins =     1000000000
(PID.TID 0000.0001) //          Total. Y spins =              0
(PID.TID 0000.0001) //            Avg. Y spins =       0.00E+00
(PID.TID 0000.0001) // o Tile number: 000182
(PID.TID 0000.0001) //         No. X exchanges =              0
(PID.TID 0000.0001) //            Max. X spins =              0
(PID.TID 0000.0001) //            Min. X spins =     1000000000
(PID.TID 0000.0001) //          Total. X spins =              0
(PID.TID 0000.0001) //            Avg. X spins =       0.00E+00
(PID.TID 0000.0001) //         No. Y exchanges =              0
(PID.TID 0000.0001) //            Max. Y spins =              0
(PID.TID 0000.0001) //            Min. Y spins =     1000000000
(PID.TID 0000.0001) //          Total. Y spins =              0
(PID.TID 0000.0001) //            Avg. Y spins =       0.00E+00
(PID.TID 0000.0001) // o Tile number: 000183
(PID.TID 0000.0001) //         No. X exchanges =              0
(PID.TID 0000.0001) //            Max. X spins =              0
(PID.TID 0000.0001) //            Min. X spins =     1000000000
(PID.TID 0000.0001) //          Total. X spins =              0
(PID.TID 0000.0001) //            Avg. X spins =       0.00E+00
(PID.TID 0000.0001) //         No. Y exchanges =              0
(PID.TID 0000.0001) //            Max. Y spins =              0
(PID.TID 0000.0001) //            Min. Y spins =     1000000000
(PID.TID 0000.0001) //          Total. Y spins =              0
(PID.TID 0000.0001) //            Avg. Y spins =       0.00E+00
(PID.TID 0000.0001) // o Tile number: 000184
(PID.TID 0000.0001) //         No. X exchanges =              0
(PID.TID 0000.0001) //            Max. X spins =              0
(PID.TID 0000.0001) //            Min. X spins =     1000000000
(PID.TID 0000.0001) //          Total. X spins =              0
(PID.TID 0000.0001) //            Avg. X spins =       0.00E+00
(PID.TID 0000.0001) //         No. Y exchanges =              0
(PID.TID 0000.0001) //            Max. Y spins =              0
(PID.TID 0000.0001) //            Min. Y spins =     1000000000
(PID.TID 0000.0001) //          Total. Y spins =              0
(PID.TID 0000.0001) //            Avg. Y spins =       0.00E+00
(PID.TID 0000.0001) // o Tile number: 000185
(PID.TID 0000.0001) //         No. X exchanges =              0
(PID.TID 0000.0001) //            Max. X spins =              0
(PID.TID 0000.0001) //            Min. X spins =     1000000000
(PID.TID 0000.0001) //          Total. X spins =              0
(PID.TID 0000.0001) //            Avg. X spins =       0.00E+00
(PID.TID 0000.0001) //         No. Y exchanges =              0
(PID.TID 0000.0001) //            Max. Y spins =              0
(PID.TID 0000.0001) //            Min. Y spins =     1000000000
(PID.TID 0000.0001) //          Total. Y spins =              0
(PID.TID 0000.0001) //            Avg. Y spins =       0.00E+00
(PID.TID 0000.0001) // o Tile number: 000186
(PID.TID 0000.0001) //         No. X exchanges =              0
(PID.TID 0000.0001) //            Max. X spins =              0
(PID.TID 0000.0001) //            Min. X spins =     1000000000
(PID.TID 0000.0001) //          Total. X spins =              0
(PID.TID 0000.0001) //            Avg. X spins =       0.00E+00
(PID.TID 0000.0001) //         No. Y exchanges =              0
(PID.TID 0000.0001) //            Max. Y spins =              0
(PID.TID 0000.0001) //            Min. Y spins =     1000000000
(PID.TID 0000.0001) //          Total. Y spins =              0
(PID.TID 0000.0001) //            Avg. Y spins =       0.00E+00
(PID.TID 0000.0001) // o Tile number: 000187
(PID.TID 0000.0001) //         No. X exchanges =              0
(PID.TID 0000.0001) //            Max. X spins =              0
(PID.TID 0000.0001) //            Min. X spins =     1000000000
(PID.TID 0000.0001) //          Total. X spins =              0
(PID.TID 0000.0001) //            Avg. X spins =       0.00E+00
(PID.TID 0000.0001) //         No. Y exchanges =              0
(PID.TID 0000.0001) //            Max. Y spins =              0
(PID.TID 0000.0001) //            Min. Y spins =     1000000000
(PID.TID 0000.0001) //          Total. Y spins =              0
(PID.TID 0000.0001) //            Avg. Y spins =       0.00E+00
(PID.TID 0000.0001) // o Tile number: 000188
(PID.TID 0000.0001) //         No. X exchanges =              0
(PID.TID 0000.0001) //            Max. X spins =              0
(PID.TID 0000.0001) //            Min. X spins =     1000000000
(PID.TID 0000.0001) //          Total. X spins =              0
(PID.TID 0000.0001) //            Avg. X spins =       0.00E+00
(PID.TID 0000.0001) //         No. Y exchanges =              0
(PID.TID 0000.0001) //            Max. Y spins =              0
(PID.TID 0000.0001) //            Min. Y spins =     1000000000
(PID.TID 0000.0001) //          Total. Y spins =              0
(PID.TID 0000.0001) //            Avg. Y spins =       0.00E+00
(PID.TID 0000.0001) // o Tile number: 000189
(PID.TID 0000.0001) //         No. X exchanges =              0
(PID.TID 0000.0001) //            Max. X spins =              0
(PID.TID 0000.0001) //            Min. X spins =     1000000000
(PID.TID 0000.0001) //          Total. X spins =              0
(PID.TID 0000.0001) //            Avg. X spins =       0.00E+00
(PID.TID 0000.0001) //         No. Y exchanges =              0
(PID.TID 0000.0001) //            Max. Y spins =              0
(PID.TID 0000.0001) //            Min. Y spins =     1000000000
(PID.TID 0000.0001) //          Total. Y spins =              0
(PID.TID 0000.0001) //            Avg. Y spins =       0.00E+00
(PID.TID 0000.0001) // o Tile number: 000190
(PID.TID 0000.0001) //         No. X exchanges =              0
(PID.TID 0000.0001) //            Max. X spins =              0
(PID.TID 0000.0001) //            Min. X spins =     1000000000
(PID.TID 0000.0001) //          Total. X spins =              0
(PID.TID 0000.0001) //            Avg. X spins =       0.00E+00
(PID.TID 0000.0001) //         No. Y exchanges =              0
(PID.TID 0000.0001) //            Max. Y spins =              0
(PID.TID 0000.0001) //            Min. Y spins =     1000000000
(PID.TID 0000.0001) //          Total. Y spins =              0
(PID.TID 0000.0001) //            Avg. Y spins =       0.00E+00
(PID.TID 0000.0001) // o Tile number: 000191
(PID.TID 0000.0001) //         No. X exchanges =              0
(PID.TID 0000.0001) //            Max. X spins =              0
(PID.TID 0000.0001) //            Min. X spins =     1000000000
(PID.TID 0000.0001) //          Total. X spins =              0
(PID.TID 0000.0001) //            Avg. X spins =       0.00E+00
(PID.TID 0000.0001) //         No. Y exchanges =              0
(PID.TID 0000.0001) //            Max. Y spins =              0
(PID.TID 0000.0001) //            Min. Y spins =     1000000000
(PID.TID 0000.0001) //          Total. Y spins =              0
(PID.TID 0000.0001) //            Avg. Y spins =       0.00E+00
(PID.TID 0000.0001) // o Tile number: 000192
(PID.TID 0000.0001) //         No. X exchanges =              0
(PID.TID 0000.0001) //            Max. X spins =              0
(PID.TID 0000.0001) //            Min. X spins =     1000000000
(PID.TID 0000.0001) //          Total. X spins =              0
(PID.TID 0000.0001) //            Avg. X spins =       0.00E+00
(PID.TID 0000.0001) //         No. Y exchanges =              0
(PID.TID 0000.0001) //            Max. Y spins =              0
(PID.TID 0000.0001) //            Min. Y spins =     1000000000
(PID.TID 0000.0001) //          Total. Y spins =              0
(PID.TID 0000.0001) //            Avg. Y spins =       0.00E+00
(PID.TID 0000.0001) // oSTOP NORMAL END statement executed
 Thread number: 000001
(PID.TID 0000.0001) //            No. barriers =          33494
(PID.TID 0000.0001) //      Max. barrier spins =              1
(PID.TID 0000.0001) //      Min. barrier spins =              1
(PID.TID 0000.0001) //     Total barrier spins =          33494
(PID.TID 0000.0001) //      Avg. barrier spins =       1.00E+00
