(PID.TID 0000.0001) 
(PID.TID 0000.0001) // ======================================================
(PID.TID 0000.0001) //                      MITgcm UV
(PID.TID 0000.0001) //                      =========
(PID.TID 0000.0001) // ======================================================
(PID.TID 0000.0001) // execution environment starting up...
(PID.TID 0000.0001) 
(PID.TID 0000.0001) // MITgcmUV version:  checkpoint61e
(PID.TID 0000.0001) // Build user:        jmc
(PID.TID 0000.0001) // Build host:        faulks
(PID.TID 0000.0001) // Build date:        Mon Oct 27 15:59:11 EDT 2008
(PID.TID 0000.0001) 
(PID.TID 0000.0001) // =======================================================
(PID.TID 0000.0001) // Execution Environment parameter file "eedata"
(PID.TID 0000.0001) // =======================================================
(PID.TID 0000.0001) ># Example "eedata" file
(PID.TID 0000.0001) ># Lines beginning "#" are comments
(PID.TID 0000.0001) ># nTx - No. threads per process in X
(PID.TID 0000.0001) ># nTy - No. threads per process in Y
(PID.TID 0000.0001) > &EEPARMS
(PID.TID 0000.0001) > nTx=1,nTy=1,
(PID.TID 0000.0001) > &
(PID.TID 0000.0001) ># Note: Some systems use & as the
(PID.TID 0000.0001) ># namelist terminator. Other systems
(PID.TID 0000.0001) ># use a / character (as shown here).
(PID.TID 0000.0001) 
(PID.TID 0000.0001) // =======================================================
(PID.TID 0000.0001) // Computational Grid Specification ( see files "SIZE.h" )
(PID.TID 0000.0001) //                                  ( and "eedata"       )
(PID.TID 0000.0001) // =======================================================
(PID.TID 0000.0001)      nPx =    1 ; /* No. processes in X */
(PID.TID 0000.0001)      nPy =    1 ; /* No. processes in Y */
(PID.TID 0000.0001)      nSx =    2 ; /* No. tiles in X per process */
(PID.TID 0000.0001)      nSy =    2 ; /* No. tiles in Y per process */
(PID.TID 0000.0001)      sNx =   30 ; /* Tile size in X */
(PID.TID 0000.0001)      sNy =   30 ; /* Tile size in Y */
(PID.TID 0000.0001)      OLx =    2 ; /* Tile overlap distance in X */
(PID.TID 0000.0001)      OLy =    2 ; /* Tile overlap distance in Y */
(PID.TID 0000.0001)      nTx =    1 ; /* No. threads in X per process */
(PID.TID 0000.0001)      nTy =    1 ; /* No. threads in Y per process */
(PID.TID 0000.0001)       Nr =    4 ; /* No. levels in the vertical   */
(PID.TID 0000.0001)       nX =   60 ; /* Total domain size in X ( = nPx*nSx*sNx ) */
(PID.TID 0000.0001)       nY =   60 ; /* Total domain size in Y ( = nPy*nSy*sNy ) */
(PID.TID 0000.0001)   nTiles =    4 ; /* Total no. tiles per process ( = nSx*nSy ) */
(PID.TID 0000.0001)   nProcs =    1 ; /* Total no. processes ( = nPx*nPy ) */
(PID.TID 0000.0001) nThreads =    1 ; /* Total no. threads per process ( = nTx*nTy ) */
(PID.TID 0000.0001) usingMPI =    F ; /* Flag used to control whether MPI is in use */
(PID.TID 0000.0001)                   /*  note: To execute a program with MPI calls */
(PID.TID 0000.0001)                   /*  it must be launched appropriately e.g     */
(PID.TID 0000.0001)                   /*  "mpirun -np 64 ......"                    */
(PID.TID 0000.0001) useCoupler=   F ; /* Flag used to control communications with */
(PID.TID 0000.0001)                   /*  other model components, through a coupler */
(PID.TID 0000.0001) 
(PID.TID 0000.0001) // ======================================================
(PID.TID 0000.0001) // Mapping of tiles to threads
(PID.TID 0000.0001) // ======================================================
(PID.TID 0000.0001) // -o- Thread   1, tiles (   1:   2,   1:   2)
(PID.TID 0000.0001) 
(PID.TID 0000.0001) // ======================================================
(PID.TID 0000.0001) // Tile <-> Tile connectvity table
(PID.TID 0000.0001) // ======================================================
(PID.TID 0000.0001) // Tile number: 000001 (process no. = 000001)
(PID.TID 0000.0001) //        WEST: Tile = 000002, Process = 000001, Comm = put
(PID.TID 0000.0001) //                bi = 000002, bj = 000001
(PID.TID 0000.0001) //        EAST: Tile = 000002, Process = 000001, Comm = put
(PID.TID 0000.0001) //                bi = 000002, bj = 000001
(PID.TID 0000.0001) //       SOUTH: Tile = 000003, Process = 000001, Comm = put
(PID.TID 0000.0001) //                bi = 000001, bj = 000002
(PID.TID 0000.0001) //       NORTH: Tile = 000003, Process = 000001, Comm = put
(PID.TID 0000.0001) //                bi = 000001, bj = 000002
(PID.TID 0000.0001) // Tile number: 000002 (process no. = 000001)
(PID.TID 0000.0001) //        WEST: Tile = 000001, Process = 000001, Comm = put
(PID.TID 0000.0001) //                bi = 000001, bj = 000001
(PID.TID 0000.0001) //        EAST: Tile = 000001, Process = 000001, Comm = put
(PID.TID 0000.0001) //                bi = 000001, bj = 000001
(PID.TID 0000.0001) //       SOUTH: Tile = 000004, Process = 000001, Comm = put
(PID.TID 0000.0001) //                bi = 000002, bj = 000002
(PID.TID 0000.0001) //       NORTH: Tile = 000004, Process = 000001, Comm = put
(PID.TID 0000.0001) //                bi = 000002, bj = 000002
(PID.TID 0000.0001) // Tile number: 000003 (process no. = 000001)
(PID.TID 0000.0001) //        WEST: Tile = 000004, Process = 000001, Comm = put
(PID.TID 0000.0001) //                bi = 000002, bj = 000002
(PID.TID 0000.0001) //        EAST: Tile = 000004, Process = 000001, Comm = put
(PID.TID 0000.0001) //                bi = 000002, bj = 000002
(PID.TID 0000.0001) //       SOUTH: Tile = 000001, Process = 000001, Comm = put
(PID.TID 0000.0001) //                bi = 000001, bj = 000001
(PID.TID 0000.0001) //       NORTH: Tile = 000001, Process = 000001, Comm = put
(PID.TID 0000.0001) //                bi = 000001, bj = 000001
(PID.TID 0000.0001) // Tile number: 000004 (process no. = 000001)
(PID.TID 0000.0001) //        WEST: Tile = 000003, Process = 000001, Comm = put
(PID.TID 0000.0001) //                bi = 000001, bj = 000002
(PID.TID 0000.0001) //        EAST: Tile = 000003, Process = 000001, Comm = put
(PID.TID 0000.0001) //                bi = 000001, bj = 000002
(PID.TID 0000.0001) //       SOUTH: Tile = 000002, Process = 000001, Comm = put
(PID.TID 0000.0001) //                bi = 000002, bj = 000001
(PID.TID 0000.0001) //       NORTH: Tile = 000002, Process = 000001, Comm = put
(PID.TID 0000.0001) //                bi = 000002, bj = 000001
(PID.TID 0000.0001) 
(PID.TID 0000.0001) // =======================================================
(PID.TID 0000.0001) // Model parameter file "data"
(PID.TID 0000.0001) // =======================================================
(PID.TID 0000.0001) ># Model parameters
(PID.TID 0000.0001) ># Continuous equation parameters
(PID.TID 0000.0001) > &PARM01
(PID.TID 0000.0001) > tRef=20.,10.,8.,6.,
(PID.TID 0000.0001) > sRef=10.,10.,10.,10.,
(PID.TID 0000.0001) > viscAz=1.E-2,
(PID.TID 0000.0001) > viscAh=4.E2,
(PID.TID 0000.0001) > no_slip_sides=.FALSE.,
(PID.TID 0000.0001) > no_slip_bottom=.TRUE.,
(PID.TID 0000.0001) > diffKhT=4.E2,
(PID.TID 0000.0001) > diffKzT=1.E-2,
(PID.TID 0000.0001) > f0=1.E-04,
(PID.TID 0000.0001) > beta=0.E-11,
(PID.TID 0000.0001) > tAlpha=2.E-4,
(PID.TID 0000.0001) > sBeta =0.,
(PID.TID 0000.0001) > gravity=9.81,
(PID.TID 0000.0001) > rigidLid=.FALSE.,
(PID.TID 0000.0001) > implicitFreeSurface=.TRUE.,
(PID.TID 0000.0001) > eosType='LINEAR',
(PID.TID 0000.0001) > readBinaryPrec=64,
(PID.TID 0000.0001) > &
(PID.TID 0000.0001) ># Elliptic solver parameters
(PID.TID 0000.0001) > &PARM02
(PID.TID 0000.0001) > cg2dMaxIters=1000,
(PID.TID 0000.0001) > cg2dTargetResidual=1.E-13,
(PID.TID 0000.0001) > &
(PID.TID 0000.0001) ># Time stepping parameters
(PID.TID 0000.0001) > &PARM03
(PID.TID 0000.0001) > startTime=0.,
(PID.TID 0000.0001) > endTime=48000.,
(PID.TID 0000.0001) > deltaTmom=1200.0,
(PID.TID 0000.0001) > deltaTtracer=1200.0,
(PID.TID 0000.0001) > abEps=0.1,
(PID.TID 0000.0001) > pChkptFreq=2592000.,
(PID.TID 0000.0001) > chkptFreq=0.0,
(PID.TID 0000.0001) > dumpFreq=2592000.0,
(PID.TID 0000.0001) > monitorFreq=1.,
(PID.TID 0000.0001) > &
(PID.TID 0000.0001) ># Gridding parameters
(PID.TID 0000.0001) > &PARM04
(PID.TID 0000.0001) > usingCartesianGrid=.TRUE.,
(PID.TID 0000.0001) > usingSphericalPolarGrid=.FALSE.,
(PID.TID 0000.0001) > delX=60*100.E03,
(PID.TID 0000.0001) > delY=60*100.E03,
(PID.TID 0000.0001) > delZ=500.,500.,500.,500.,
(PID.TID 0000.0001) > &
(PID.TID 0000.0001) > &PARM05
(PID.TID 0000.0001) > bathyFile='topog.box',
(PID.TID 0000.0001) > hydrogThetaFile=,
(PID.TID 0000.0001) > hydrogSaltFile=,
(PID.TID 0000.0001) > zonalWindFile=,
(PID.TID 0000.0001) > meridWindFile=,
(PID.TID 0000.0001) > pLoadFile='pLoad.bin',
(PID.TID 0000.0001) > &
(PID.TID 0000.0001) 
(PID.TID 0000.0001) S/R INI_PARMS ; starts to read PARM01
(PID.TID 0000.0001) S/R INI_PARMS ; read PARM01 : OK
(PID.TID 0000.0001) S/R INI_PARMS ; starts to read PARM02
(PID.TID 0000.0001) S/R INI_PARMS ; read PARM02 : OK
(PID.TID 0000.0001) S/R INI_PARMS ; starts to read PARM03
(PID.TID 0000.0001) S/R INI_PARMS ; read PARM03 : OK
(PID.TID 0000.0001) S/R INI_PARMS ; starts to read PARM04
(PID.TID 0000.0001) S/R INI_PARMS ; read PARM04 : OK
(PID.TID 0000.0001) S/R INI_PARMS ; starts to read PARM05
(PID.TID 0000.0001) S/R INI_PARMS ; read PARM05 : OK
(PID.TID 0000.0001)  PACKAGES_BOOT: opening data.pkg
(PID.TID 0000.0001)  OPEN_COPY_DATA_FILE: opening file data.pkg
(PID.TID 0000.0001) // =======================================================
(PID.TID 0000.0001) // Parameter file "data.pkg"
(PID.TID 0000.0001) // =======================================================
(PID.TID 0000.0001) ># Packages
(PID.TID 0000.0001) > &PACKAGES
(PID.TID 0000.0001) > useDiagnostics=.TRUE.,
(PID.TID 0000.0001) > useMNC=.TRUE.,
(PID.TID 0000.0001) > &
(PID.TID 0000.0001) 
(PID.TID 0000.0001)  PACKAGES_BOOT: finished reading data.pkg
(PID.TID 0000.0001)  MNC_READPARMS: opening file 'data.mnc'
(PID.TID 0000.0001)  OPEN_COPY_DATA_FILE: opening file data.mnc
(PID.TID 0000.0001) // =======================================================
(PID.TID 0000.0001) // Parameter file "data.mnc"
(PID.TID 0000.0001) // =======================================================
(PID.TID 0000.0001) ># Example "data.mnc" file
(PID.TID 0000.0001) ># Lines beginning "#" are comments
(PID.TID 0000.0001) > &MNC_01
(PID.TID 0000.0001) ># mnc_echo_gvtypes=.FALSE.,
(PID.TID 0000.0001) ># mnc_use_indir=.FALSE.,
(PID.TID 0000.0001) > mnc_use_outdir=.TRUE.,
(PID.TID 0000.0001) > mnc_outdir_str='mnc_test_',
(PID.TID 0000.0001) >#mnc_outdir_date=.TRUE.,
(PID.TID 0000.0001) > monitor_mnc=.FALSE.,
(PID.TID 0000.0001) >#snapshot_mnc=.FALSE.,
(PID.TID 0000.0001) >#timeave_mnc=.FALSE.,
(PID.TID 0000.0001) > pickup_read_mnc=.FALSE.,
(PID.TID 0000.0001) > pickup_write_mnc=.FALSE.,
(PID.TID 0000.0001) > &
(PID.TID 0000.0001) ># Note: Some systems use / as the
(PID.TID 0000.0001) ># namelist terminator. Other systems
(PID.TID 0000.0001) ># use a & character (as shown here).
(PID.TID 0000.0001) 
(PID.TID 0000.0001)  MNC_READPARMS: finished reading data.mnc
(PID.TID 0000.0001)  DIAGNOSTICS_READPARMS: opening data.diagnostics
(PID.TID 0000.0001)  OPEN_COPY_DATA_FILE: opening file data.diagnostics
(PID.TID 0000.0001) // =======================================================
(PID.TID 0000.0001) // Parameter file "data.diagnostics"
(PID.TID 0000.0001) // =======================================================
(PID.TID 0000.0001) ># Diagnostic Package Choices
(PID.TID 0000.0001) >#-----------------
(PID.TID 0000.0001) >#  dumpAtLast (logical): always write output at the end of simulation (default=F)
(PID.TID 0000.0001) >#  diag_mnc   (logical): write to NetCDF files (default=useMNC)
(PID.TID 0000.0001) >#--for each output-stream:
(PID.TID 0000.0001) >#  filename(n) : prefix of the output file name (only 8.c long) for outp.stream n
(PID.TID 0000.0001) >#  frequency(n):< 0 : write snap-shot output every |frequency| seconds
(PID.TID 0000.0001) >#               > 0 : write time-average output every frequency seconds
(PID.TID 0000.0001) >#  timePhase(n)     : write at time = timePhase + multiple of |frequency|
(PID.TID 0000.0001) >#    averagingFreq  : frequency (in s) for periodic averaging interval
(PID.TID 0000.0001) >#    averagingPhase : phase     (in s) for periodic averaging interval
(PID.TID 0000.0001) >#    repeatCycle    : number of averaging intervals in 1 cycle
(PID.TID 0000.0001) >#  levels(:,n) : list of levels to write to file (Notes: declared as REAL)
(PID.TID 0000.0001) >#                when this entry is missing, select all common levels of this list
(PID.TID 0000.0001) >#  fields(:,n) : list of diagnostics fields (8.c) (see "available_diagnostics.log"
(PID.TID 0000.0001) >#                file for the list of all available diag. in this particular config)
(PID.TID 0000.0001) >#  mising_value     : missing value for floats   in output
(PID.TID 0000.0001) >#  mising_value_int : missing value for integers in output
(PID.TID 0000.0001) >#  fileflags (8c string) : specific code for output file
(PID.TID 0000.0001) >#-----------------
(PID.TID 0000.0001) > &DIAGNOSTICS_LIST
(PID.TID 0000.0001) ># diag_mnc     = .FALSE.,
(PID.TID 0000.0001) >  frequency(1) = 43200.,
(PID.TID 0000.0001) ># timePhase(1) = 0.,
(PID.TID 0000.0001) >   filename(1) = 't_Diag',
(PID.TID 0000.0001) >   fields(1,1) = 'THETA   ','THETASQ ',
(PID.TID 0000.0001) > &
(PID.TID 0000.0001) >
(PID.TID 0000.0001) ># Parameter for Diagnostics of per level statistics:
(PID.TID 0000.0001) >#-----------------
(PID.TID 0000.0001) >#  diagSt_mnc (logical): write stat-diags to NetCDF files (default=diag_mnc)
(PID.TID 0000.0001) >#  diagSt_regMaskFile : file containing the region-mask to read-in
(PID.TID 0000.0001) >#  nSetRegMskFile   : number of region-mask sets within the region-mask file
(PID.TID 0000.0001) >#  set_regMask(i)   : region-mask set-index that identifies the region "i"
(PID.TID 0000.0001) >#  val_regMask(i)   : region "i" identificator value in the region mask
(PID.TID 0000.0001) >#--for each output-stream:
(PID.TID 0000.0001) >#  stat_fname(n) : prefix of the output file name (only 8.c long) for outp.stream n
(PID.TID 0000.0001) >#  stat_freq(n):< 0 : write snap-shot output every |stat_freq| seconds
(PID.TID 0000.0001) >#               > 0 : write time-average output every stat_freq seconds
(PID.TID 0000.0001) >#  stat_phase(n)    : write at time = stat_phase + multiple of |stat_freq|
(PID.TID 0000.0001) >#  stat_region(:,n) : list of "regions" (default: 1 region only=global)
(PID.TID 0000.0001) >#  stat_fields(:,n) : list of diagnostics fields (8.c) (see "available_diagnostics.log"
(PID.TID 0000.0001) >#                 file for the list of all available diag. in this particular config)
(PID.TID 0000.0001) >#-----------------
(PID.TID 0000.0001) > &DIAG_STATIS_PARMS
(PID.TID 0000.0001) > diagSt_mnc = .FALSE.,
(PID.TID 0000.0001) > stat_fields(1,1)= 'ETAN    ','momKE   ',
(PID.TID 0000.0001) >#                  'DETADT2 ',
(PID.TID 0000.0001) >                   'THETA   ','THETASQ ',
(PID.TID 0000.0001) >    stat_fname(1)= 'dynStDiag',
(PID.TID 0000.0001) >     stat_freq(1)= -21600.,
(PID.TID 0000.0001) >    stat_phase(1)= 0.,
(PID.TID 0000.0001) > &
(PID.TID 0000.0001) >
(PID.TID 0000.0001) 
(PID.TID 0000.0001) S/R DIAGNOSTICS_READPARMS, read namelist "diagnostics_list": start
(PID.TID 0000.0001) S/R DIAGNOSTICS_READPARMS, read namelist "diagnostics_list": OK
(PID.TID 0000.0001) S/R DIAGNOSTICS_READPARMS, read namelist "DIAG_STATIS_PARMS": start
(PID.TID 0000.0001) S/R DIAGNOSTICS_READPARMS, read namelist "DIAG_STATIS_PARMS": OK
(PID.TID 0000.0001) -----------------------------------------------------
(PID.TID 0000.0001)  DIAGNOSTICS_READPARMS: active diagnostics summary:
(PID.TID 0000.0001) -----------------------------------------------------
(PID.TID 0000.0001) Creating Output Stream: t_Diag
(PID.TID 0000.0001) Output Frequency:      43200.000000 ; Phase:           0.000000
(PID.TID 0000.0001)  Averaging Freq.:      43200.000000 , Phase:           0.000000 , Cycle:   1
(PID.TID 0000.0001)  missing value:  1.234567000000E+05 ; for integers:   123456789
(PID.TID 0000.0001)  Levels:    will be set later
(PID.TID 0000.0001)  Fields:    THETA    THETASQ
(PID.TID 0000.0001) -----------------------------------------------------
(PID.TID 0000.0001)  DIAGNOSTICS_READPARMS: statistics diags. summary:
(PID.TID 0000.0001) Creating Stats. Output Stream: dynStDiag
(PID.TID 0000.0001) Output Frequency:     -21600.000000 ; Phase:           0.000000
(PID.TID 0000.0001)  Regions:   0
(PID.TID 0000.0001)  Fields:    ETAN     momKE    THETA    THETASQ
(PID.TID 0000.0001) -----------------------------------------------------
(PID.TID 0000.0001) 
(PID.TID 0000.0001) SET_PARMS: done
(PID.TID 0000.0001) Enter INI_VERTICAL_GRID: setInterFDr=    T ; setCenterDr=    F
(PID.TID 0000.0001) %MON XC_max                       =   5.9500000000000E+06
(PID.TID 0000.0001) %MON XC_min                       =   5.0000000000000E+04
(PID.TID 0000.0001) %MON XC_mean                      =   3.0000000000000E+06
(PID.TID 0000.0001) %MON XC_sd                        =   1.7318102282487E+06
(PID.TID 0000.0001) %MON XG_max                       =   5.9000000000000E+06
(PID.TID 0000.0001) %MON XG_min                       =   0.0000000000000E+00
(PID.TID 0000.0001) %MON XG_mean                      =   2.9500000000000E+06
(PID.TID 0000.0001) %MON XG_sd                        =   1.7318102282487E+06
(PID.TID 0000.0001) %MON DXC_max                      =   1.0000000000000E+05
(PID.TID 0000.0001) %MON DXC_min                      =   1.0000000000000E+05
(PID.TID 0000.0001) %MON DXC_mean                     =   1.0000000000000E+05
(PID.TID 0000.0001) %MON DXC_sd                       =   0.0000000000000E+00
(PID.TID 0000.0001) %MON DXF_max                      =   1.0000000000000E+05
(PID.TID 0000.0001) %MON DXF_min                      =   1.0000000000000E+05
(PID.TID 0000.0001) %MON DXF_mean                     =   1.0000000000000E+05
(PID.TID 0000.0001) %MON DXF_sd                       =   0.0000000000000E+00
(PID.TID 0000.0001) %MON DXG_max                      =   1.0000000000000E+05
(PID.TID 0000.0001) %MON DXG_min                      =   1.0000000000000E+05
(PID.TID 0000.0001) %MON DXG_mean                     =   1.0000000000000E+05
(PID.TID 0000.0001) %MON DXG_sd                       =   0.0000000000000E+00
(PID.TID 0000.0001) %MON DXV_max                      =   1.0000000000000E+05
(PID.TID 0000.0001) %MON DXV_min                      =   1.0000000000000E+05
(PID.TID 0000.0001) %MON DXV_mean                     =   1.0000000000000E+05
(PID.TID 0000.0001) %MON DXV_sd                       =   0.0000000000000E+00
(PID.TID 0000.0001) %MON YC_max                       =   5.9500000000000E+06
(PID.TID 0000.0001) %MON YC_min                       =   5.0000000000000E+04
(PID.TID 0000.0001) %MON YC_mean                      =   3.0000000000000E+06
(PID.TID 0000.0001) %MON YC_sd                        =   1.7318102282487E+06
(PID.TID 0000.0001) %MON YG_max                       =   5.9000000000000E+06
(PID.TID 0000.0001) %MON YG_min                       =   0.0000000000000E+00
(PID.TID 0000.0001) %MON YG_mean                      =   2.9500000000000E+06
(PID.TID 0000.0001) %MON YG_sd                        =   1.7318102282487E+06
(PID.TID 0000.0001) %MON DYC_max                      =   1.0000000000000E+05
(PID.TID 0000.0001) %MON DYC_min                      =   1.0000000000000E+05
(PID.TID 0000.0001) %MON DYC_mean                     =   1.0000000000000E+05
(PID.TID 0000.0001) %MON DYC_sd                       =   0.0000000000000E+00
(PID.TID 0000.0001) %MON DYF_max                      =   1.0000000000000E+05
(PID.TID 0000.0001) %MON DYF_min                      =   1.0000000000000E+05
(PID.TID 0000.0001) %MON DYF_mean                     =   1.0000000000000E+05
(PID.TID 0000.0001) %MON DYF_sd                       =   0.0000000000000E+00
(PID.TID 0000.0001) %MON DYG_max                      =   1.0000000000000E+05
(PID.TID 0000.0001) %MON DYG_min                      =   1.0000000000000E+05
(PID.TID 0000.0001) %MON DYG_mean                     =   1.0000000000000E+05
(PID.TID 0000.0001) %MON DYG_sd                       =   0.0000000000000E+00
(PID.TID 0000.0001) %MON DYU_max                      =   1.0000000000000E+05
(PID.TID 0000.0001) %MON DYU_min                      =   1.0000000000000E+05
(PID.TID 0000.0001) %MON DYU_mean                     =   1.0000000000000E+05
(PID.TID 0000.0001) %MON DYU_sd                       =   0.0000000000000E+00
(PID.TID 0000.0001) %MON RA_max                       =   1.0000000000000E+10
(PID.TID 0000.0001) %MON RA_min                       =   1.0000000000000E+10
(PID.TID 0000.0001) %MON RA_mean                      =   1.0000000000000E+10
(PID.TID 0000.0001) %MON RA_sd                        =   0.0000000000000E+00
(PID.TID 0000.0001) %MON RAW_max                      =   1.0000000000000E+10
(PID.TID 0000.0001) %MON RAW_min                      =   1.0000000000000E+10
(PID.TID 0000.0001) %MON RAW_mean                     =   1.0000000000000E+10
(PID.TID 0000.0001) %MON RAW_sd                       =   0.0000000000000E+00
(PID.TID 0000.0001) %MON RAS_max                      =   1.0000000000000E+10
(PID.TID 0000.0001) %MON RAS_min                      =   1.0000000000000E+10
(PID.TID 0000.0001) %MON RAS_mean                     =   1.0000000000000E+10
(PID.TID 0000.0001) %MON RAS_sd                       =   0.0000000000000E+00
(PID.TID 0000.0001) %MON RAZ_max                      =   1.0000000000000E+10
(PID.TID 0000.0001) %MON RAZ_min                      =   1.0000000000000E+10
(PID.TID 0000.0001) %MON RAZ_mean                     =   1.0000000000000E+10
(PID.TID 0000.0001) %MON RAZ_sd                       =   0.0000000000000E+00
(PID.TID 0000.0001) %MON AngleCS_max                  =   1.0000000000000E+00
(PID.TID 0000.0001) %MON AngleCS_min                  =   1.0000000000000E+00
(PID.TID 0000.0001) %MON AngleCS_mean                 =   1.0000000000000E+00
(PID.TID 0000.0001) %MON AngleCS_sd                   =   0.0000000000000E+00
(PID.TID 0000.0001) %MON AngleSN_max                  =   0.0000000000000E+00
(PID.TID 0000.0001) %MON AngleSN_min                  =   0.0000000000000E+00
(PID.TID 0000.0001) %MON AngleSN_mean                 =   0.0000000000000E+00
(PID.TID 0000.0001) %MON AngleSN_sd                   =   0.0000000000000E+00
(PID.TID 0000.0001)  MDS_READ_FIELD: opening global file: topog.box
(PID.TID 0000.0001) // =======================================================
(PID.TID 0000.0001) // Field Model R_low (ini_masks_etc) at iteration          1
(PID.TID 0000.0001) // CMIN =         -2.000000000000000E+03
(PID.TID 0000.0001) // CMAX =         -2.000000000000000E+03
(PID.TID 0000.0001) // CINT =          0.000000000000000E+00
(PID.TID 0000.0001) // SYMBOLS (CMIN->CMAX): -abcdefghijklmnopqrstuvwxyz+
(PID.TID 0000.0001) //                  0.0: .
(PID.TID 0000.0001) // RANGE I (Lo:Hi:Step):(  -1:  62:   1)
(PID.TID 0000.0001) // RANGE J (Lo:Hi:Step):(  62:  -1:  -1)
(PID.TID 0000.0001) // RANGE K (Lo:Hi:Step):(   1:   1:   1)
(PID.TID 0000.0001) // =======================================================
(PID.TID 0000.0001) // =======================================================
(PID.TID 0000.0001) // END OF FIELD                                          =
(PID.TID 0000.0001) // =======================================================
(PID.TID 0000.0001) 
(PID.TID 0000.0001) // =======================================================
(PID.TID 0000.0001) // Field Model Ro_surf (ini_masks_etc) at iteration          1
(PID.TID 0000.0001) // CMIN =          1.000000000000000E+32
(PID.TID 0000.0001) // CMAX =         -1.000000000000000E+32
(PID.TID 0000.0001) // CINT =          0.000000000000000E+00
(PID.TID 0000.0001) // SYMBOLS (CMIN->CMAX): -abcdefghijklmnopqrstuvwxyz+
(PID.TID 0000.0001) //                  0.0: .
(PID.TID 0000.0001) // RANGE I (Lo:Hi:Step):(  -1:  62:   1)
(PID.TID 0000.0001) // RANGE J (Lo:Hi:Step):(  62:  -1:  -1)
(PID.TID 0000.0001) // RANGE K (Lo:Hi:Step):(   1:   1:   1)
(PID.TID 0000.0001) // =======================================================
(PID.TID 0000.0001) // =======================================================
(PID.TID 0000.0001) // END OF FIELD                                          =
(PID.TID 0000.0001) // =======================================================
(PID.TID 0000.0001) 
(PID.TID 0000.0001) // =======================================================
(PID.TID 0000.0001) // Field hFacC at iteration          1
(PID.TID 0000.0001) // CMIN =          1.000000000000000E+00
(PID.TID 0000.0001) // CMAX =          1.000000000000000E+00
(PID.TID 0000.0001) // CINT =          0.000000000000000E+00
(PID.TID 0000.0001) // SYMBOLS (CMIN->CMAX): -abcdefghijklmnopqrstuvwxyz+
(PID.TID 0000.0001) //                  0.0: .
(PID.TID 0000.0001) // RANGE I (Lo:Hi:Step):(  -1:  62:   1)
(PID.TID 0000.0001) // RANGE J (Lo:Hi:Step):(  62:  -1:  -1)
(PID.TID 0000.0001) // RANGE K (Lo:Hi:Step):(   1:   1:   1)
(PID.TID 0000.0001) // =======================================================
(PID.TID 0000.0001) // =======================================================
(PID.TID 0000.0001) // END OF FIELD                                          =
(PID.TID 0000.0001) // =======================================================
(PID.TID 0000.0001) 
(PID.TID 0000.0001) // =======================================================
(PID.TID 0000.0001) // Field hFacW at iteration          1
(PID.TID 0000.0001) // CMIN =          1.000000000000000E+00
(PID.TID 0000.0001) // CMAX =          1.000000000000000E+00
(PID.TID 0000.0001) // CINT =          0.000000000000000E+00
(PID.TID 0000.0001) // SYMBOLS (CMIN->CMAX): -abcdefghijklmnopqrstuvwxyz+
(PID.TID 0000.0001) //                  0.0: .
(PID.TID 0000.0001) // RANGE I (Lo:Hi:Step):(  -1:  62:   1)
(PID.TID 0000.0001) // RANGE J (Lo:Hi:Step):(  62:  -1:  -1)
(PID.TID 0000.0001) // RANGE K (Lo:Hi:Step):(   1:   1:   1)
(PID.TID 0000.0001) // =======================================================
(PID.TID 0000.0001) // =======================================================
(PID.TID 0000.0001) // END OF FIELD                                          =
(PID.TID 0000.0001) // =======================================================
(PID.TID 0000.0001) 
(PID.TID 0000.0001) // =======================================================
(PID.TID 0000.0001) // Field hFacS at iteration          1
(PID.TID 0000.0001) // CMIN =          1.000000000000000E+00
(PID.TID 0000.0001) // CMAX =          1.000000000000000E+00
(PID.TID 0000.0001) // CINT =          0.000000000000000E+00
(PID.TID 0000.0001) // SYMBOLS (CMIN->CMAX): -abcdefghijklmnopqrstuvwxyz+
(PID.TID 0000.0001) //                  0.0: .
(PID.TID 0000.0001) // RANGE I (Lo:Hi:Step):(  -1:  62:   1)
(PID.TID 0000.0001) // RANGE J (Lo:Hi:Step):(  62:  -1:  -1)
(PID.TID 0000.0001) // RANGE K (Lo:Hi:Step):(   1:   1:   1)
(PID.TID 0000.0001) // =======================================================
(PID.TID 0000.0001) // =======================================================
(PID.TID 0000.0001) // END OF FIELD                                          =
(PID.TID 0000.0001) // =======================================================
(PID.TID 0000.0001) 
(PID.TID 0000.0001) 
(PID.TID 0000.0001) // ===================================
(PID.TID 0000.0001) // GAD parameters :
(PID.TID 0000.0001) // ===================================
(PID.TID 0000.0001) tempAdvScheme =   /* Temp. Horiz.Advection scheme selector */
(PID.TID 0000.0001)                       2
(PID.TID 0000.0001)     ;
(PID.TID 0000.0001) tempVertAdvScheme =   /* Temp. Vert. Advection scheme selector */
(PID.TID 0000.0001)                       2
(PID.TID 0000.0001)     ;
(PID.TID 0000.0001) tempMultiDimAdvec =   /* use Muti-Dim Advec method for Temp */
(PID.TID 0000.0001)                   F
(PID.TID 0000.0001)     ;
(PID.TID 0000.0001) tempSOM_Advection = /* use 2nd Order Moment Advection for Temp */
(PID.TID 0000.0001)                   F
(PID.TID 0000.0001)     ;
(PID.TID 0000.0001) AdamsBashforthGt = /* apply Adams-Bashforth extrapolation on Gt */
(PID.TID 0000.0001)                   T
(PID.TID 0000.0001)     ;
(PID.TID 0000.0001) AdamsBashforth_T = /* apply Adams-Bashforth extrapolation on Temp */
(PID.TID 0000.0001)                   F
(PID.TID 0000.0001)     ;
(PID.TID 0000.0001) saltAdvScheme =   /* Salt. Horiz.advection scheme selector */
(PID.TID 0000.0001)                       2
(PID.TID 0000.0001)     ;
(PID.TID 0000.0001) saltVertAdvScheme =   /* Salt. Vert. Advection scheme selector */
(PID.TID 0000.0001)                       2
(PID.TID 0000.0001)     ;
(PID.TID 0000.0001) saltMultiDimAdvec =   /* use Muti-Dim Advec method for Salt */
(PID.TID 0000.0001)                   F
(PID.TID 0000.0001)     ;
(PID.TID 0000.0001) saltSOM_Advection = /* use 2nd Order Moment Advection for Salt */
(PID.TID 0000.0001)                   F
(PID.TID 0000.0001)     ;
(PID.TID 0000.0001) AdamsBashforthGs = /* apply Adams-Bashforth extrapolation on Gs */
(PID.TID 0000.0001)                   T
(PID.TID 0000.0001)     ;
(PID.TID 0000.0001) AdamsBashforth_S = /* apply Adams-Bashforth extrapolation on Salt */
(PID.TID 0000.0001)                   F
(PID.TID 0000.0001)     ;
(PID.TID 0000.0001) // ===================================
(PID.TID 0000.0001) ------------------------------------------------------------
(PID.TID 0000.0001) DIAGNOSTICS_SET_LEVELS: done
(PID.TID 0000.0001)  Total Nb of available Diagnostics: ndiagt=   170
(PID.TID 0000.0001)  write list of available Diagnostics to file: available_diagnostics.log
(PID.TID 0000.0001) SETDIAG: Allocate  4 x  1 Levels for Diagnostic #    26 THETA
(PID.TID 0000.0001) SETDIAG: Allocate  4 x  1 Levels for Diagnostic #    33 THETASQ
(PID.TID 0000.0001)   space allocated for all diagnostics:       8 levels
(PID.TID 0000.0001) DIAGNOSTICS_SET_POINTERS: Set levels for Outp.Stream: t_Diag
(PID.TID 0000.0001)  Levels:       1.   2.   3.   4.
(PID.TID 0000.0001) DIAGNOSTICS_SET_POINTERS: done
(PID.TID 0000.0001) ------------------------------------------------------------
(PID.TID 0000.0001) DIAGSTATS_SET_REGIONS: define no region
(PID.TID 0000.0001) ------------------------------------------------------------
(PID.TID 0000.0001) SETDIAG: Allocate  1 Levels for Stats-Diag #    23 ETAN
(PID.TID 0000.0001) SETDIAG: Allocate  4 Levels for Stats-Diag #   136 momKE
(PID.TID 0000.0001) SETDIAG: Allocate  4 Levels for Stats-Diag #    26 THETA
(PID.TID 0000.0001) SETDIAG: Allocate  4 Levels for Stats-Diag #    33 THETASQ
(PID.TID 0000.0001)   space allocated for all stats-diags:      13 levels
(PID.TID 0000.0001) DIAGSTATS_SET_POINTERS: done
(PID.TID 0000.0001) ------------------------------------------------------------
(PID.TID 0000.0001) DIAGSTATS_INI_IO: open file: dynStDiag.0000000000.txt , unit=     9
(PID.TID 0000.0001) %MON fCori_max                    =   9.9999997473788E-05
(PID.TID 0000.0001) %MON fCori_min                    =   9.9999997473788E-05
(PID.TID 0000.0001) %MON fCori_mean                   =   9.9999997473788E-05
(PID.TID 0000.0001) %MON fCori_sd                     =   0.0000000000000E+00
(PID.TID 0000.0001) %MON fCoriG_max                   =   9.9999997473788E-05
(PID.TID 0000.0001) %MON fCoriG_min                   =   9.9999997473788E-05
(PID.TID 0000.0001) %MON fCoriG_mean                  =   9.9999997473788E-05
(PID.TID 0000.0001) %MON fCoriG_sd                    =   0.0000000000000E+00
(PID.TID 0000.0001) %MON fCoriCos_max                 =   0.0000000000000E+00
(PID.TID 0000.0001) %MON fCoriCos_min                 =   0.0000000000000E+00
(PID.TID 0000.0001) %MON fCoriCos_mean                =   0.0000000000000E+00
(PID.TID 0000.0001) %MON fCoriCos_sd                  =   0.0000000000000E+00
(PID.TID 0000.0001) INI_CG2D: CG2D normalisation factor =  5.0000002374872565E-04
(PID.TID 0000.0001) 
(PID.TID 0000.0001) // =======================================================
(PID.TID 0000.0001) // Model configuration
(PID.TID 0000.0001) // =======================================================
(PID.TID 0000.0001) //
(PID.TID 0000.0001) // "Physical" paramters ( PARM01 in namelist )
(PID.TID 0000.0001) //
(PID.TID 0000.0001) buoyancyRelation = /* Type of relation to get Buoyancy */
(PID.TID 0000.0001)               'OCEANIC'
(PID.TID 0000.0001)     ;
(PID.TID 0000.0001) fluidIsAir  =  /* fluid major constituent is Air */
(PID.TID 0000.0001)                   F
(PID.TID 0000.0001)     ;
(PID.TID 0000.0001) fluidIsWater=  /* fluid major constituent is Water */
(PID.TID 0000.0001)                   T
(PID.TID 0000.0001)     ;
(PID.TID 0000.0001) usingPCoords =  /* use p (or p*) vertical coordinate */
(PID.TID 0000.0001)                   F
(PID.TID 0000.0001)     ;
(PID.TID 0000.0001) usingZCoords =  /* use z (or z*) vertical coordinate */
(PID.TID 0000.0001)                   T
(PID.TID 0000.0001)     ;
(PID.TID 0000.0001) tRef =   /* Reference temperature profile ( oC or K ) */
(PID.TID 0000.0001)                 2.000000000000000E+01,      /* K =  1 */
(PID.TID 0000.0001)                 1.000000000000000E+01,      /* K =  2 */
(PID.TID 0000.0001)                 8.000000000000000E+00,      /* K =  3 */
(PID.TID 0000.0001)                 6.000000000000000E+00       /* K =  4 */
(PID.TID 0000.0001)     ;
(PID.TID 0000.0001) sRef =   /* Reference salinity profile ( psu ) */
(PID.TID 0000.0001)     4 @  1.000000000000000E+01              /* K =  1:  4 */
(PID.TID 0000.0001)     ;
(PID.TID 0000.0001) viscAh =   /* Lateral eddy viscosity ( m^2/s ) */
(PID.TID 0000.0001)                 4.000000000000000E+02
(PID.TID 0000.0001)     ;
(PID.TID 0000.0001) viscAhMax =   /* Maximum lateral eddy viscosity ( m^2/s ) */
(PID.TID 0000.0001)                 1.000000000000000E+21
(PID.TID 0000.0001)     ;
(PID.TID 0000.0001) viscAhGrid =   /* Grid dependent lateral eddy viscosity ( non-dim. ) */
(PID.TID 0000.0001)                 0.000000000000000E+00
(PID.TID 0000.0001)     ;
(PID.TID 0000.0001) useFullLeith =   /* Use Full Form of Leith Viscosity on/off flag*/
(PID.TID 0000.0001)                   F
(PID.TID 0000.0001)     ;
(PID.TID 0000.0001) useStrainTensionVisc =   /* Use StrainTension Form of Viscous Operator on/off flag*/
(PID.TID 0000.0001)                   F
(PID.TID 0000.0001)     ;
(PID.TID 0000.0001) useAreaViscLength =   /* Use area for visc length instead of geom. mean*/
(PID.TID 0000.0001)                   F
(PID.TID 0000.0001)     ;
(PID.TID 0000.0001) viscC2leith = /* Leith harmonic visc. factor (on grad(vort),non-dim.) */
(PID.TID 0000.0001)                 0.000000000000000E+00
(PID.TID 0000.0001)     ;
(PID.TID 0000.0001) viscC2leithD = /* Leith harmonic viscosity factor (on grad(div),non-dim.) */
(PID.TID 0000.0001)                 0.000000000000000E+00
(PID.TID 0000.0001)     ;
(PID.TID 0000.0001) viscC2smag =   /* Smagorinsky harmonic viscosity factor (non-dim.) */
(PID.TID 0000.0001)                 0.000000000000000E+00
(PID.TID 0000.0001)     ;
(PID.TID 0000.0001) viscA4 =   /* Lateral biharmonic viscosity ( m^4/s ) */
(PID.TID 0000.0001)                 0.000000000000000E+00
(PID.TID 0000.0001)     ;
(PID.TID 0000.0001) viscA4Max =   /* Maximum biharmonic viscosity ( m^2/s ) */
(PID.TID 0000.0001)                 1.000000000000000E+21
(PID.TID 0000.0001)     ;
(PID.TID 0000.0001) viscA4Grid =   /* Grid dependent biharmonic viscosity ( non-dim. ) */
(PID.TID 0000.0001)                 0.000000000000000E+00
(PID.TID 0000.0001)     ;
(PID.TID 0000.0001) viscC4leith = /* Leith biharm viscosity factor (on grad(vort), non-dim.) */
(PID.TID 0000.0001)                 0.000000000000000E+00
(PID.TID 0000.0001)     ;
(PID.TID 0000.0001) viscC4leithD = /* Leith biharm viscosity factor (on grad(div), non-dim.) */
(PID.TID 0000.0001)                 0.000000000000000E+00
(PID.TID 0000.0001)     ;
(PID.TID 0000.0001) viscC4Smag = /* Smagorinsky biharm viscosity factor (non-dim) */
(PID.TID 0000.0001)                 0.000000000000000E+00
(PID.TID 0000.0001)     ;
(PID.TID 0000.0001) no_slip_sides =  /* Viscous BCs: No-slip sides */
(PID.TID 0000.0001)                   F
(PID.TID 0000.0001)     ;
(PID.TID 0000.0001) sideDragFactor = /* side-drag scaling factor (non-dim) */
(PID.TID 0000.0001)                 2.000000000000000E+00
(PID.TID 0000.0001)     ;
(PID.TID 0000.0001) viscAr =   /* Vertical eddy viscosity ( m^2/s ) */
(PID.TID 0000.0001)                 1.000000000000000E-02
(PID.TID 0000.0001)     ;
(PID.TID 0000.0001) no_slip_bottom =  /* Viscous BCs: No-slip bottom */
(PID.TID 0000.0001)                   T
(PID.TID 0000.0001)     ;
(PID.TID 0000.0001) bottomDragLinear = /* linear bottom-drag coefficient ( m/s ) */
(PID.TID 0000.0001)                 0.000000000000000E+00
(PID.TID 0000.0001)     ;
(PID.TID 0000.0001) bottomDragQuadratic = /* quadratic bottom-drag coefficient (-) */
(PID.TID 0000.0001)                 0.000000000000000E+00
(PID.TID 0000.0001)     ;
(PID.TID 0000.0001) diffKhT =   /* Laplacian diffusion of heat laterally ( m^2/s ) */
(PID.TID 0000.0001)                 4.000000000000000E+02
(PID.TID 0000.0001)     ;
(PID.TID 0000.0001) diffK4T =   /* Biharmonic diffusion of heat laterally ( m^4/s ) */
(PID.TID 0000.0001)                 0.000000000000000E+00
(PID.TID 0000.0001)     ;
(PID.TID 0000.0001) diffKhS =   /* Laplacian diffusion of salt laterally ( m^2/s ) */
(PID.TID 0000.0001)                 0.000000000000000E+00
(PID.TID 0000.0001)     ;
(PID.TID 0000.0001) diffK4S =   /* Biharmonic diffusion of salt laterally ( m^4/s ) */
(PID.TID 0000.0001)                 0.000000000000000E+00
(PID.TID 0000.0001)     ;
(PID.TID 0000.0001) diffKrNrT = /* vertical profile of vertical diffusion of Temp ( m^2/s )*/
(PID.TID 0000.0001)     4 @  1.000000000000000E-02              /* K =  1:  4 */
(PID.TID 0000.0001)     ;
(PID.TID 0000.0001) diffKrNrS = /* vertical profile of vertical diffusion of Salt ( m^2/s )*/
(PID.TID 0000.0001)     4 @  0.000000000000000E+00              /* K =  1:  4 */
(PID.TID 0000.0001)     ;
(PID.TID 0000.0001) diffKrBL79surf = /* Surface diffusion for Bryan and Lewis 79 ( m^2/s ) */
(PID.TID 0000.0001)                 0.000000000000000E+00
(PID.TID 0000.0001)     ;
(PID.TID 0000.0001) diffKrBL79deep = /* Deep diffusion for Bryan and Lewis 1979 ( m^2/s ) */
(PID.TID 0000.0001)                 0.000000000000000E+00
(PID.TID 0000.0001)     ;
(PID.TID 0000.0001) diffKrBL79scl = /* Depth scale for Bryan and Lewis 1979 ( m ) */
(PID.TID 0000.0001)                 2.000000000000000E+02
(PID.TID 0000.0001)     ;
(PID.TID 0000.0001) diffKrBL79Ho = /* Turning depth for Bryan and Lewis 1979 ( m ) */
(PID.TID 0000.0001)                -2.000000000000000E+03
(PID.TID 0000.0001)     ;
(PID.TID 0000.0001) ivdc_kappa = /* Implicit Vertical Diffusivity for Convection ( m^2/s ) */
(PID.TID 0000.0001)                 0.000000000000000E+00
(PID.TID 0000.0001)     ;
(PID.TID 0000.0001) hMixCriteria=  /* Criteria for mixed-layer diagnostic */
(PID.TID 0000.0001)                -8.000000000000000E-01
(PID.TID 0000.0001)     ;
(PID.TID 0000.0001) eosType =  /* Type of Equation of State */
(PID.TID 0000.0001)               'LINEAR'
(PID.TID 0000.0001)     ;
(PID.TID 0000.0001) tAlpha =   /* Linear EOS thermal expansion coefficient ( 1/oC ) */
(PID.TID 0000.0001)                 2.000000000000000E-04
(PID.TID 0000.0001)     ;
(PID.TID 0000.0001) sBeta =   /* Linear EOS haline contraction coefficient ( 1/psu ) */
(PID.TID 0000.0001)                 0.000000000000000E+00
(PID.TID 0000.0001)     ;
(PID.TID 0000.0001) rhonil =   /* Reference density ( kg/m^3 ) */
(PID.TID 0000.0001)                 9.998000000000000E+02
(PID.TID 0000.0001)     ;
(PID.TID 0000.0001) rhoConst =   /* Reference density ( kg/m^3 ) */
(PID.TID 0000.0001)                 9.998000000000000E+02
(PID.TID 0000.0001)     ;
(PID.TID 0000.0001) rhoFacC = /* normalized Reference density @ cell-Center (-) */
(PID.TID 0000.0001)     4 @  1.000000000000000E+00              /* K =  1:  4 */
(PID.TID 0000.0001)     ;
(PID.TID 0000.0001) rhoFacF = /* normalized Reference density @ W-Interface (-) */
(PID.TID 0000.0001)     5 @  1.000000000000000E+00              /* K =  1:  5 */
(PID.TID 0000.0001)     ;
(PID.TID 0000.0001) rhoConstFresh =   /* Reference density ( kg/m^3 ) */
(PID.TID 0000.0001)                 9.998000000000000E+02
(PID.TID 0000.0001)     ;
(PID.TID 0000.0001) gravity =   /* Gravitational acceleration ( m/s^2 ) */
(PID.TID 0000.0001)                 9.810000000000000E+00
(PID.TID 0000.0001)     ;
(PID.TID 0000.0001) gBaro =   /* Barotropic gravity ( m/s^2 ) */
(PID.TID 0000.0001)                 9.810000000000000E+00
(PID.TID 0000.0001)     ;
(PID.TID 0000.0001) rotationPeriod =   /* Rotation Period ( s ) */
(PID.TID 0000.0001)                 8.616400000000000E+04
(PID.TID 0000.0001)     ;
(PID.TID 0000.0001) omega =   /* Angular velocity ( rad/s ) */
(PID.TID 0000.0001)                 7.292123516990375E-05
(PID.TID 0000.0001)     ;
(PID.TID 0000.0001) f0 =   /* Reference coriolis parameter ( 1/s ) */
(PID.TID 0000.0001)                 1.000000000000000E-04
(PID.TID 0000.0001)     ;
(PID.TID 0000.0001) beta =   /* Beta ( 1/(m.s) ) */
(PID.TID 0000.0001)                 0.000000000000000E+00
(PID.TID 0000.0001)     ;
(PID.TID 0000.0001) freeSurfFac =   /* Implicit free surface factor */
(PID.TID 0000.0001)                 1.000000000000000E+00
(PID.TID 0000.0001)     ;
(PID.TID 0000.0001) implicitFreeSurface =   /* Implicit free surface on/off flag */
(PID.TID 0000.0001)                   T
(PID.TID 0000.0001)     ;
(PID.TID 0000.0001) rigidLid =   /* Rigid lid on/off flag */
(PID.TID 0000.0001)                   F
(PID.TID 0000.0001)     ;
(PID.TID 0000.0001) implicSurfPress =   /* Surface Pressure implicit factor (0-1)*/
(PID.TID 0000.0001)                 1.000000000000000E+00
(PID.TID 0000.0001)     ;
(PID.TID 0000.0001) implicDiv2Dflow =   /* Barot. Flow Div. implicit factor (0-1)*/
(PID.TID 0000.0001)                 1.000000000000000E+00
(PID.TID 0000.0001)     ;
(PID.TID 0000.0001) exactConserv =   /* Exact Volume Conservation on/off flag*/
(PID.TID 0000.0001)                   F
(PID.TID 0000.0001)     ;
(PID.TID 0000.0001) linFSConserveTr =   /* Tracer correction for Lin Free Surface on/off flag*/
(PID.TID 0000.0001)                   F
(PID.TID 0000.0001)     ;
(PID.TID 0000.0001) uniformLin_PhiSurf =   /* use uniform Bo_surf on/off flag*/
(PID.TID 0000.0001)                   T
(PID.TID 0000.0001)     ;
(PID.TID 0000.0001) nonlinFreeSurf =   /* Non-linear Free Surf. options (-1,0,1,2,3)*/
(PID.TID 0000.0001)                       0
(PID.TID 0000.0001)     ;
(PID.TID 0000.0001)      -1,0= Off ; 1,2,3= On, 2=+rescale gU,gV, 3=+update cg2d solv.
(PID.TID 0000.0001) hFacInf =   /* lower threshold for hFac (nonlinFreeSurf only)*/
(PID.TID 0000.0001)                 2.000000000000000E-01
(PID.TID 0000.0001)     ;
(PID.TID 0000.0001) hFacSup =   /* upper threshold for hFac (nonlinFreeSurf only)*/
(PID.TID 0000.0001)                 2.000000000000000E+00
(PID.TID 0000.0001)     ;
(PID.TID 0000.0001) select_rStar = /* r* Vertical coord. options (=0 r coord.; > 0 uses r*) */
(PID.TID 0000.0001)                       0
(PID.TID 0000.0001)     ;
(PID.TID 0000.0001) selectAddFluid = /* option for mass source/sink of fluid (=0: off) */
(PID.TID 0000.0001)                       0
(PID.TID 0000.0001)     ;
(PID.TID 0000.0001) useRealFreshWaterFlux = /* Real Fresh Water Flux on/off flag*/
(PID.TID 0000.0001)                   F
(PID.TID 0000.0001)     ;
(PID.TID 0000.0001) temp_EvPrRn = /* Temp. of Evap/Prec/R (UNSET=use local T)(oC)*/
(PID.TID 0000.0001)                 1.234567000000000E+05
(PID.TID 0000.0001)     ;
(PID.TID 0000.0001) salt_EvPrRn = /* Salin. of Evap/Prec/R (UNSET=use local S)(ppt)*/
(PID.TID 0000.0001)                 0.000000000000000E+00
(PID.TID 0000.0001)     ;
(PID.TID 0000.0001) convertFW2Salt = /* convert F.W. Flux to Salt Flux (-1=use local S)(ppt)*/
(PID.TID 0000.0001)                 3.500000000000000E+01
(PID.TID 0000.0001)     ;
(PID.TID 0000.0001) use3Dsolver = /* use 3-D pressure solver on/off flag */
(PID.TID 0000.0001)                   F
(PID.TID 0000.0001)     ;
(PID.TID 0000.0001) nonHydrostatic =  /* Non-Hydrostatic on/off flag */
(PID.TID 0000.0001)                   F
(PID.TID 0000.0001)     ;
(PID.TID 0000.0001) nh_Am2 = /* Non-Hydrostatic terms scaling factor */
(PID.TID 0000.0001)                 1.000000000000000E+00
(PID.TID 0000.0001)     ;
(PID.TID 0000.0001) quasiHydrostatic = /* Quasi-Hydrostatic on/off flag */
(PID.TID 0000.0001)                   F
(PID.TID 0000.0001)     ;
(PID.TID 0000.0001) momStepping =  /* Momentum equation on/off flag */
(PID.TID 0000.0001)                   T
(PID.TID 0000.0001)     ;
(PID.TID 0000.0001) vectorInvariantMomentum= /* Vector-Invariant Momentum on/off */
(PID.TID 0000.0001)                   F
(PID.TID 0000.0001)     ;
(PID.TID 0000.0001) momAdvection =  /* Momentum advection on/off flag */
(PID.TID 0000.0001)                   T
(PID.TID 0000.0001)     ;
(PID.TID 0000.0001) momViscosity =  /* Momentum viscosity on/off flag */
(PID.TID 0000.0001)                   T
(PID.TID 0000.0001)     ;
(PID.TID 0000.0001) momImplVertAdv =/* Momentum implicit vert. advection on/off*/
(PID.TID 0000.0001)                   F
(PID.TID 0000.0001)     ;
(PID.TID 0000.0001) implicitViscosity = /* Implicit viscosity on/off flag */
(PID.TID 0000.0001)                   F
(PID.TID 0000.0001)     ;
(PID.TID 0000.0001) metricTerms =  /* metric-Terms on/off flag */
(PID.TID 0000.0001)                   F
(PID.TID 0000.0001)     ;
(PID.TID 0000.0001) useNHMTerms = /* Non-Hydrostatic Metric-Terms on/off */
(PID.TID 0000.0001)                   F
(PID.TID 0000.0001)     ;
(PID.TID 0000.0001) useConstantF =  /* use Constant f0 Coriolis flag */
(PID.TID 0000.0001)                   F
(PID.TID 0000.0001)     ;
(PID.TID 0000.0001) useBetaPlaneF = /* use Beta-Plane Coriolis flag */
(PID.TID 0000.0001)                   T
(PID.TID 0000.0001)     ;
(PID.TID 0000.0001) useSphereF  =   /* use Spherical Coriolis flag */
(PID.TID 0000.0001)                   F
(PID.TID 0000.0001)     ;
(PID.TID 0000.0001) use3dCoriolis = /* 3-D Coriolis on/off flag */
(PID.TID 0000.0001)                   F
(PID.TID 0000.0001)     ;
(PID.TID 0000.0001) useCoriolis =  /* Coriolis on/off flag */
(PID.TID 0000.0001)                   T
(PID.TID 0000.0001)     ;
(PID.TID 0000.0001) useCDscheme =  /* CD scheme on/off flag */
(PID.TID 0000.0001)                   F
(PID.TID 0000.0001)     ;
(PID.TID 0000.0001) useJamartWetPoints= /* Coriolis WetPoints method flag */
(PID.TID 0000.0001)                   F
(PID.TID 0000.0001)     ;
(PID.TID 0000.0001) useJamartMomAdv= /* V.I. Non-linear terms Jamart flag */
(PID.TID 0000.0001)                   F
(PID.TID 0000.0001)     ;
(PID.TID 0000.0001) useAbsVorticity= /* Work with f+zeta in Coriolis */
(PID.TID 0000.0001)                   F
(PID.TID 0000.0001)     ;
(PID.TID 0000.0001) selectVortScheme= /* Scheme selector for Vorticity-Term */
(PID.TID 0000.0001)               123456789
(PID.TID 0000.0001)    = 0 : enstrophy (Shallow-Water Eq.) conserving scheme by Sadourny, JAS 75
(PID.TID 0000.0001)    = 1 : same as 0 with modified hFac
(PID.TID 0000.0001)    = 2 : energy conserving scheme (used by Sadourny in JAS 75 paper)
(PID.TID 0000.0001)    = 3 : energy (general) and enstrophy (2D, nonDiv.) conserving scheme
(PID.TID 0000.0001)          from Sadourny (Burridge & Haseler, ECMWF Rep.4, 1977)
(PID.TID 0000.0001)     ;
(PID.TID 0000.0001) upwindVorticity= /* Upwind bias vorticity flag */
(PID.TID 0000.0001)                   F
(PID.TID 0000.0001)     ;
(PID.TID 0000.0001) highOrderVorticity= /* High order interp. of vort. flag */
(PID.TID 0000.0001)                   F
(PID.TID 0000.0001)     ;
(PID.TID 0000.0001) upwindShear= /* Upwind vertical Shear advection flag */
(PID.TID 0000.0001)                   F
(PID.TID 0000.0001)     ;
(PID.TID 0000.0001) selectKEscheme= /* Kinetic Energy scheme selector */
(PID.TID 0000.0001)                       0
(PID.TID 0000.0001)     ;
(PID.TID 0000.0001) momForcing =  /* Momentum forcing on/off flag */
(PID.TID 0000.0001)                   T
(PID.TID 0000.0001)     ;
(PID.TID 0000.0001) momPressureForcing =  /* Momentum pressure term on/off flag */
(PID.TID 0000.0001)                   T
(PID.TID 0000.0001)     ;
(PID.TID 0000.0001) implicitIntGravWave= /* Implicit Internal Gravity Wave flag */
(PID.TID 0000.0001)                   F
(PID.TID 0000.0001)     ;
(PID.TID 0000.0001) staggerTimeStep =   /* Stagger time stepping on/off flag */
(PID.TID 0000.0001)                   F
(PID.TID 0000.0001)     ;
(PID.TID 0000.0001) multiDimAdvection =   /* enable/disable Multi-Dim Advection */
(PID.TID 0000.0001)                   T
(PID.TID 0000.0001)     ;
(PID.TID 0000.0001) useMultiDimAdvec =   /* Multi-Dim Advection is/is-not used */
(PID.TID 0000.0001)                   F
(PID.TID 0000.0001)     ;
(PID.TID 0000.0001) implicitDiffusion =/* Implicit Diffusion on/off flag */
(PID.TID 0000.0001)                   F
(PID.TID 0000.0001)     ;
(PID.TID 0000.0001) tempStepping =  /* Temperature equation on/off flag */
(PID.TID 0000.0001)                   T
(PID.TID 0000.0001)     ;
(PID.TID 0000.0001) tempAdvection=  /* Temperature advection on/off flag */
(PID.TID 0000.0001)                   T
(PID.TID 0000.0001)     ;
(PID.TID 0000.0001) tempImplVertAdv =/* Temp. implicit vert. advection on/off */
(PID.TID 0000.0001)                   F
(PID.TID 0000.0001)     ;
(PID.TID 0000.0001) tempForcing  =  /* Temperature forcing on/off flag */
(PID.TID 0000.0001)                   T
(PID.TID 0000.0001)     ;
(PID.TID 0000.0001) tempIsActiveTr = /* Temp. is a dynamically Active Tracer */
(PID.TID 0000.0001)                   T
(PID.TID 0000.0001)     ;
(PID.TID 0000.0001) saltStepping =  /* Salinity equation on/off flag */
(PID.TID 0000.0001)                   T
(PID.TID 0000.0001)     ;
(PID.TID 0000.0001) saltAdvection=  /* Salinity advection on/off flag */
(PID.TID 0000.0001)                   T
(PID.TID 0000.0001)     ;
(PID.TID 0000.0001) saltImplVertAdv =/* Sali. implicit vert. advection on/off */
(PID.TID 0000.0001)                   F
(PID.TID 0000.0001)     ;
(PID.TID 0000.0001) saltForcing  =  /* Salinity forcing on/off flag */
(PID.TID 0000.0001)                   T
(PID.TID 0000.0001)     ;
(PID.TID 0000.0001) saltIsActiveTr = /* Salt  is a dynamically Active Tracer */
(PID.TID 0000.0001)                   F
(PID.TID 0000.0001)     ;
(PID.TID 0000.0001)  readBinaryPrec = /* Precision used for reading binary files */
(PID.TID 0000.0001)                      64
(PID.TID 0000.0001)     ;
(PID.TID 0000.0001) writeBinaryPrec = /* Precision used for writing binary files */
(PID.TID 0000.0001)                      32
(PID.TID 0000.0001)     ;
(PID.TID 0000.0001)  globalFiles = /* write "global" (=not per tile) files */
(PID.TID 0000.0001)                   F
(PID.TID 0000.0001)     ;
(PID.TID 0000.0001)  useSingleCpuIO = /* only master MPI process does I/O */
(PID.TID 0000.0001)                   F
(PID.TID 0000.0001)     ;
(PID.TID 0000.0001)  debugMode  =  /* Debug Mode on/off flag */
(PID.TID 0000.0001)                   F
(PID.TID 0000.0001)     ;
(PID.TID 0000.0001)    debLevA  =  /* 1rst level of debugging */
(PID.TID 0000.0001)                       1
(PID.TID 0000.0001)     ;
(PID.TID 0000.0001)    debLevB  =  /* 2nd  level of debugging */
(PID.TID 0000.0001)                       2
(PID.TID 0000.0001)     ;
(PID.TID 0000.0001)  debugLevel =  /* select debugging level */
(PID.TID 0000.0001)                       1
(PID.TID 0000.0001)     ;
(PID.TID 0000.0001) //
(PID.TID 0000.0001) // Elliptic solver(s) paramters ( PARM02 in namelist )
(PID.TID 0000.0001) //
(PID.TID 0000.0001) cg2dMaxIters =   /* Upper limit on 2d con. grad iterations  */
(PID.TID 0000.0001)                    1000
(PID.TID 0000.0001)     ;
(PID.TID 0000.0001) cg2dChkResFreq =   /* 2d con. grad convergence test frequency */
(PID.TID 0000.0001)                       1
(PID.TID 0000.0001)     ;
(PID.TID 0000.0001) cg2dTargetResidual =   /* 2d con. grad target residual  */
(PID.TID 0000.0001)                 1.000000000000000E-13
(PID.TID 0000.0001)     ;
(PID.TID 0000.0001) cg2dTargetResWunit =   /* CG2d target residual [W units] */
(PID.TID 0000.0001)                -1.000000000000000E+00
(PID.TID 0000.0001)     ;
(PID.TID 0000.0001) cg2dPreCondFreq =   /* Freq. for updating cg2d preconditioner */
(PID.TID 0000.0001)                       1
(PID.TID 0000.0001)     ;
(PID.TID 0000.0001) //
(PID.TID 0000.0001) // Time stepping paramters ( PARM03 in namelist )
(PID.TID 0000.0001) //
(PID.TID 0000.0001) deltaTmom =   /* Momentum equation timestep ( s ) */
(PID.TID 0000.0001)                 1.200000000000000E+03
(PID.TID 0000.0001)     ;
(PID.TID 0000.0001) deltaTfreesurf =   /* FreeSurface equation timestep ( s ) */
(PID.TID 0000.0001)                 1.200000000000000E+03
(PID.TID 0000.0001)     ;
(PID.TID 0000.0001) dTtracerLev =   /* Tracer equation timestep ( s ) */
(PID.TID 0000.0001)     4 @  1.200000000000000E+03              /* K =  1:  4 */
(PID.TID 0000.0001)     ;
(PID.TID 0000.0001) deltaTClock  =   /* Model clock timestep ( s ) */
(PID.TID 0000.0001)                 1.200000000000000E+03
(PID.TID 0000.0001)     ;
(PID.TID 0000.0001) cAdjFreq =   /* Convective adjustment interval ( s ) */
(PID.TID 0000.0001)                 0.000000000000000E+00
(PID.TID 0000.0001)     ;
(PID.TID 0000.0001) momForcingOutAB = /* =1: take Momentum Forcing out of Adams-Bash. stepping */
(PID.TID 0000.0001)                       0
(PID.TID 0000.0001)     ;
(PID.TID 0000.0001) tracForcingOutAB = /* =1: take T,S,pTr Forcing out of Adams-Bash. stepping */
(PID.TID 0000.0001)                       0
(PID.TID 0000.0001)     ;
(PID.TID 0000.0001) momDissip_In_AB = /* put Dissipation Tendency in Adams-Bash. stepping */
(PID.TID 0000.0001)                   T
(PID.TID 0000.0001)     ;
(PID.TID 0000.0001) doAB_onGtGs = /* apply AB on Tendencies (rather than on T,S)*/
(PID.TID 0000.0001)                   T
(PID.TID 0000.0001)     ;
(PID.TID 0000.0001) abEps =   /* Adams-Bashforth-2 stabilizing weight */
(PID.TID 0000.0001)                 1.000000000000000E-01
(PID.TID 0000.0001)     ;
(PID.TID 0000.0001) pickupStrictlyMatch= /* stop if pickup do not strictly match */
(PID.TID 0000.0001)                   T
(PID.TID 0000.0001)     ;
(PID.TID 0000.0001) nIter0 =   /* Run starting timestep number  */
(PID.TID 0000.0001)                       0
(PID.TID 0000.0001)     ;
(PID.TID 0000.0001) nTimeSteps =   /* Number of timesteps */
(PID.TID 0000.0001)                      40
(PID.TID 0000.0001)     ;
(PID.TID 0000.0001) baseTime =   /* Model base time ( s ). */
(PID.TID 0000.0001)                 0.000000000000000E+00
(PID.TID 0000.0001)     ;
(PID.TID 0000.0001) startTime =   /* Run start time ( s ). */
(PID.TID 0000.0001)                 0.000000000000000E+00
(PID.TID 0000.0001)     ;
(PID.TID 0000.0001) endTime =   /* Integration ending time ( s ). */
(PID.TID 0000.0001)                 4.800000000000000E+04
(PID.TID 0000.0001)     ;
(PID.TID 0000.0001) pChkPtFreq =   /* Permanent restart/checkpoint file interval ( s ). */
(PID.TID 0000.0001)                 2.592000000000000E+06
(PID.TID 0000.0001)     ;
(PID.TID 0000.0001) chkPtFreq =   /* Rolling restart/checkpoint file interval ( s ). */
(PID.TID 0000.0001)                 0.000000000000000E+00
(PID.TID 0000.0001)     ;
(PID.TID 0000.0001) pickup_write_mdsio =   /* Model IO flag. */
(PID.TID 0000.0001)                   T
(PID.TID 0000.0001)     ;
(PID.TID 0000.0001) pickup_read_mdsio =   /* Model IO flag. */
(PID.TID 0000.0001)                   T
(PID.TID 0000.0001)     ;
(PID.TID 0000.0001) pickup_write_mnc =   /* Model IO flag. */
(PID.TID 0000.0001)                   F
(PID.TID 0000.0001)     ;
(PID.TID 0000.0001) pickup_read_mnc =   /* Model IO flag. */
(PID.TID 0000.0001)                   F
(PID.TID 0000.0001)     ;
(PID.TID 0000.0001) pickup_write_immed =   /* Model IO flag. */
(PID.TID 0000.0001)                   F
(PID.TID 0000.0001)     ;
(PID.TID 0000.0001) writePickupAtEnd =   /* Model IO flag. */
(PID.TID 0000.0001)                   T
(PID.TID 0000.0001)     ;
(PID.TID 0000.0001) dumpFreq =   /* Model state write out interval ( s ). */
(PID.TID 0000.0001)                 2.592000000000000E+06
(PID.TID 0000.0001)     ;
(PID.TID 0000.0001) dumpInitAndLast= /* write out Initial & Last iter. model state */
(PID.TID 0000.0001)                   T
(PID.TID 0000.0001)     ;
(PID.TID 0000.0001) snapshot_mdsio =   /* Model IO flag. */
(PID.TID 0000.0001)                   F
(PID.TID 0000.0001)     ;
(PID.TID 0000.0001) snapshot_mnc =   /* Model IO flag. */
(PID.TID 0000.0001)                   T
(PID.TID 0000.0001)     ;
(PID.TID 0000.0001) monitorFreq =   /* Monitor output interval ( s ). */
(PID.TID 0000.0001)                 1.000000000000000E+00
(PID.TID 0000.0001)     ;
(PID.TID 0000.0001) monitorSelect = /* select group of variables to monitor */
(PID.TID 0000.0001)                       3
(PID.TID 0000.0001)     ;
(PID.TID 0000.0001) monitor_stdio =   /* Model IO flag. */
(PID.TID 0000.0001)                   T
(PID.TID 0000.0001)     ;
(PID.TID 0000.0001) monitor_mnc =   /* Model IO flag. */
(PID.TID 0000.0001)                   F
(PID.TID 0000.0001)     ;
(PID.TID 0000.0001) externForcingPeriod =   /* forcing period (s) */
(PID.TID 0000.0001)                 0.000000000000000E+00
(PID.TID 0000.0001)     ;
(PID.TID 0000.0001) externForcingCycle =   /* period of the cyle (s). */
(PID.TID 0000.0001)                 0.000000000000000E+00
(PID.TID 0000.0001)     ;
(PID.TID 0000.0001) tauThetaClimRelax =   /* relaxation time scale (s) */
(PID.TID 0000.0001)                 0.000000000000000E+00
(PID.TID 0000.0001)     ;
(PID.TID 0000.0001) tauSaltClimRelax =   /* relaxation time scale (s) */
(PID.TID 0000.0001)                 0.000000000000000E+00
(PID.TID 0000.0001)     ;
(PID.TID 0000.0001) latBandClimRelax =   /* max. Lat. where relaxation */
(PID.TID 0000.0001)                 1.800000000000000E+07
(PID.TID 0000.0001)     ;
(PID.TID 0000.0001) //
(PID.TID 0000.0001) // Gridding paramters ( PARM04 in namelist )
(PID.TID 0000.0001) //
(PID.TID 0000.0001) usingCartesianGrid = /* Cartesian coordinates flag ( True/False ) */
(PID.TID 0000.0001)                   T
(PID.TID 0000.0001)     ;
(PID.TID 0000.0001) usingCylindricalGrid = /* Cylindrical coordinates flag ( True/False ) */
(PID.TID 0000.0001)                   F
(PID.TID 0000.0001)     ;
(PID.TID 0000.0001) usingSphericalPolarGrid = /* Spherical coordinates flag ( True/False ) */
(PID.TID 0000.0001)                   F
(PID.TID 0000.0001)     ;
(PID.TID 0000.0001) usingCurvilinearGrid = /* Curvilinear coordinates flag ( True/False ) */
(PID.TID 0000.0001)                   F
(PID.TID 0000.0001)     ;
(PID.TID 0000.0001) Ro_SeaLevel = /* r(1) ( units of r ==  m ) */
(PID.TID 0000.0001)                 0.000000000000000E+00
(PID.TID 0000.0001)     ;
(PID.TID 0000.0001) rkSign =   /* index orientation relative to vertical coordinate */
(PID.TID 0000.0001)                -1.000000000000000E+00
(PID.TID 0000.0001)     ;
(PID.TID 0000.0001) gravitySign = /* gravity orientation relative to vertical coordinate */
(PID.TID 0000.0001)                -1.000000000000000E+00
(PID.TID 0000.0001)     ;
(PID.TID 0000.0001) mass2rUnit = /* convert mass per unit area [kg/m2] to r-units [m] */
(PID.TID 0000.0001)                 1.000200040008002E-03
(PID.TID 0000.0001)     ;
(PID.TID 0000.0001) rUnit2mass = /* convert r-units [m] to mass per unit area [kg/m2] */
(PID.TID 0000.0001)                 9.998000000000000E+02
(PID.TID 0000.0001)     ;
(PID.TID 0000.0001) drC =   /* C spacing ( units of r ) */
(PID.TID 0000.0001)                 2.997596375673209E+19,      /* K =  1 */
(PID.TID 0000.0001)     3 @  2.997596379109183E+19              /* K =  2:  4 */
(PID.TID 0000.0001)     ;
(PID.TID 0000.0001) drF =   /* W spacing ( units of r ) */
(PID.TID 0000.0001)     2 @  2.997596379109183E+19,             /* K =  1:  2 */
(PID.TID 0000.0001)                 1.971999590807934E-24,      /* K =  3 */
(PID.TID 0000.0001)                 1.971999587726446E-24       /* K =  4 */
(PID.TID 0000.0001)     ;
(PID.TID 0000.0001) delX =   /* U spacing ( m - cartesian, degrees - spherical ) */
(PID.TID 0000.0001)    60 @  1.000000000000000E+05              /* I =  1: 60 */
(PID.TID 0000.0001)     ;
(PID.TID 0000.0001) delY =   /* V spacing ( m - cartesian, degrees - spherical ) */
(PID.TID 0000.0001)    60 @  1.000000000000000E+05              /* J =  1: 60 */
(PID.TID 0000.0001)     ;
(PID.TID 0000.0001) phiMin =    /* South edge (ignored - cartesian, degrees - spherical ) */
(PID.TID 0000.0001)                 0.000000000000000E+00
(PID.TID 0000.0001)     ;
(PID.TID 0000.0001) thetaMin =    /* West edge ( ignored - cartesian, degrees - spherical ) */
(PID.TID 0000.0001)                 0.000000000000000E+00
(PID.TID 0000.0001)     ;
(PID.TID 0000.0001) rSphere =  /* Radius ( ignored - cartesian, m - spherical ) */
(PID.TID 0000.0001)                 6.370000000000000E+06
(PID.TID 0000.0001)     ;
(PID.TID 0000.0001) deepAtmosphere = /* Deep/Shallow Atmosphere flag (True/False) */
(PID.TID 0000.0001)                   F
(PID.TID 0000.0001)     ;
(PID.TID 0000.0001) xcoord =   /* P-point X coord ( m - cartesian, degrees - spherical ) */
(PID.TID 0000.0001)                 5.000000000000000E+04,      /* I =  1 */
(PID.TID 0000.0001)                 1.500000000000000E+05,      /* I =  2 */
(PID.TID 0000.0001)                 2.500000000000000E+05,      /* I =  3 */
(PID.TID 0000.0001)                 3.500000000000000E+05,      /* I =  4 */
(PID.TID 0000.0001)                 4.500000000000000E+05,      /* I =  5 */
(PID.TID 0000.0001)                 5.500000000000000E+05,      /* I =  6 */
(PID.TID 0000.0001)                 6.500000000000000E+05,      /* I =  7 */
(PID.TID 0000.0001)                 7.500000000000000E+05,      /* I =  8 */
(PID.TID 0000.0001)                 8.500000000000000E+05,      /* I =  9 */
(PID.TID 0000.0001)                 9.500000000000000E+05,      /* I = 10 */
(PID.TID 0000.0001)                 1.050000000000000E+06,      /* I = 11 */
(PID.TID 0000.0001)                 1.150000000000000E+06,      /* I = 12 */
(PID.TID 0000.0001)                 1.250000000000000E+06,      /* I = 13 */
(PID.TID 0000.0001)                 1.350000000000000E+06,      /* I = 14 */
(PID.TID 0000.0001)                 1.450000000000000E+06,      /* I = 15 */
(PID.TID 0000.0001)                 1.550000000000000E+06,      /* I = 16 */
(PID.TID 0000.0001)                 1.650000000000000E+06,      /* I = 17 */
(PID.TID 0000.0001)                 1.750000000000000E+06,      /* I = 18 */
(PID.TID 0000.0001)                 1.850000000000000E+06,      /* I = 19 */
(PID.TID 0000.0001)                 1.950000000000000E+06,      /* I = 20 */
(PID.TID 0000.0001)                 2.050000000000000E+06,      /* I = 21 */
(PID.TID 0000.0001)                 2.150000000000000E+06,      /* I = 22 */
(PID.TID 0000.0001)                 2.250000000000000E+06,      /* I = 23 */
(PID.TID 0000.0001)                 2.350000000000000E+06,      /* I = 24 */
(PID.TID 0000.0001)                 2.450000000000000E+06,      /* I = 25 */
(PID.TID 0000.0001)                 2.550000000000000E+06,      /* I = 26 */
(PID.TID 0000.0001)                 2.650000000000000E+06,      /* I = 27 */
(PID.TID 0000.0001)                 2.750000000000000E+06,      /* I = 28 */
(PID.TID 0000.0001)                 2.850000000000000E+06,      /* I = 29 */
(PID.TID 0000.0001)                 2.950000000000000E+06,      /* I = 30 */
(PID.TID 0000.0001)                 3.050000000000000E+06,      /* I = 31 */
(PID.TID 0000.0001)                 3.150000000000000E+06,      /* I = 32 */
(PID.TID 0000.0001)                 3.250000000000000E+06,      /* I = 33 */
(PID.TID 0000.0001)                 3.350000000000000E+06,      /* I = 34 */
(PID.TID 0000.0001)                 3.450000000000000E+06,      /* I = 35 */
(PID.TID 0000.0001)                 3.550000000000000E+06,      /* I = 36 */
(PID.TID 0000.0001)                 3.650000000000000E+06,      /* I = 37 */
(PID.TID 0000.0001)                 3.750000000000000E+06,      /* I = 38 */
(PID.TID 0000.0001)                 3.850000000000000E+06,      /* I = 39 */
(PID.TID 0000.0001)                 3.950000000000000E+06,      /* I = 40 */
(PID.TID 0000.0001)                 4.050000000000000E+06,      /* I = 41 */
(PID.TID 0000.0001)                 4.150000000000000E+06,      /* I = 42 */
(PID.TID 0000.0001)                 4.250000000000000E+06,      /* I = 43 */
(PID.TID 0000.0001)                 4.350000000000000E+06,      /* I = 44 */
(PID.TID 0000.0001)                 4.450000000000000E+06,      /* I = 45 */
(PID.TID 0000.0001)                 4.550000000000000E+06,      /* I = 46 */
(PID.TID 0000.0001)                 4.650000000000000E+06,      /* I = 47 */
(PID.TID 0000.0001)                 4.750000000000000E+06,      /* I = 48 */
(PID.TID 0000.0001)                 4.850000000000000E+06,      /* I = 49 */
(PID.TID 0000.0001)                 4.950000000000000E+06,      /* I = 50 */
(PID.TID 0000.0001)                 5.050000000000000E+06,      /* I = 51 */
(PID.TID 0000.0001)                 5.150000000000000E+06,      /* I = 52 */
(PID.TID 0000.0001)                 5.250000000000000E+06,      /* I = 53 */
(PID.TID 0000.0001)                 5.350000000000000E+06,      /* I = 54 */
(PID.TID 0000.0001)                 5.450000000000000E+06,      /* I = 55 */
(PID.TID 0000.0001)                 5.550000000000000E+06,      /* I = 56 */
(PID.TID 0000.0001)                 5.650000000000000E+06,      /* I = 57 */
(PID.TID 0000.0001)                 5.750000000000000E+06,      /* I = 58 */
(PID.TID 0000.0001)                 5.850000000000000E+06,      /* I = 59 */
(PID.TID 0000.0001)                 5.950000000000000E+06       /* I = 60 */
(PID.TID 0000.0001)     ;
(PID.TID 0000.0001) ycoord =   /* P-point Y coord ( m - cartesian, degrees - spherical ) */
(PID.TID 0000.0001)                 5.000000000000000E+04,      /* J =  1 */
(PID.TID 0000.0001)                 1.500000000000000E+05,      /* J =  2 */
(PID.TID 0000.0001)                 2.500000000000000E+05,      /* J =  3 */
(PID.TID 0000.0001)                 3.500000000000000E+05,      /* J =  4 */
(PID.TID 0000.0001)                 4.500000000000000E+05,      /* J =  5 */
(PID.TID 0000.0001)                 5.500000000000000E+05,      /* J =  6 */
(PID.TID 0000.0001)                 6.500000000000000E+05,      /* J =  7 */
(PID.TID 0000.0001)                 7.500000000000000E+05,      /* J =  8 */
(PID.TID 0000.0001)                 8.500000000000000E+05,      /* J =  9 */
(PID.TID 0000.0001)                 9.500000000000000E+05,      /* J = 10 */
(PID.TID 0000.0001)                 1.050000000000000E+06,      /* J = 11 */
(PID.TID 0000.0001)                 1.150000000000000E+06,      /* J = 12 */
(PID.TID 0000.0001)                 1.250000000000000E+06,      /* J = 13 */
(PID.TID 0000.0001)                 1.350000000000000E+06,      /* J = 14 */
(PID.TID 0000.0001)                 1.450000000000000E+06,      /* J = 15 */
(PID.TID 0000.0001)                 1.550000000000000E+06,      /* J = 16 */
(PID.TID 0000.0001)                 1.650000000000000E+06,      /* J = 17 */
(PID.TID 0000.0001)                 1.750000000000000E+06,      /* J = 18 */
(PID.TID 0000.0001)                 1.850000000000000E+06,      /* J = 19 */
(PID.TID 0000.0001)                 1.950000000000000E+06,      /* J = 20 */
(PID.TID 0000.0001)                 2.050000000000000E+06,      /* J = 21 */
(PID.TID 0000.0001)                 2.150000000000000E+06,      /* J = 22 */
(PID.TID 0000.0001)                 2.250000000000000E+06,      /* J = 23 */
(PID.TID 0000.0001)                 2.350000000000000E+06,      /* J = 24 */
(PID.TID 0000.0001)                 2.450000000000000E+06,      /* J = 25 */
(PID.TID 0000.0001)                 2.550000000000000E+06,      /* J = 26 */
(PID.TID 0000.0001)                 2.650000000000000E+06,      /* J = 27 */
(PID.TID 0000.0001)                 2.750000000000000E+06,      /* J = 28 */
(PID.TID 0000.0001)                 2.850000000000000E+06,      /* J = 29 */
(PID.TID 0000.0001)                 2.950000000000000E+06,      /* J = 30 */
(PID.TID 0000.0001)                 3.050000000000000E+06,      /* J = 31 */
(PID.TID 0000.0001)                 3.150000000000000E+06,      /* J = 32 */
(PID.TID 0000.0001)                 3.250000000000000E+06,      /* J = 33 */
(PID.TID 0000.0001)                 3.350000000000000E+06,      /* J = 34 */
(PID.TID 0000.0001)                 3.450000000000000E+06,      /* J = 35 */
(PID.TID 0000.0001)                 3.550000000000000E+06,      /* J = 36 */
(PID.TID 0000.0001)                 3.650000000000000E+06,      /* J = 37 */
(PID.TID 0000.0001)                 3.750000000000000E+06,      /* J = 38 */
(PID.TID 0000.0001)                 3.850000000000000E+06,      /* J = 39 */
(PID.TID 0000.0001)                 3.950000000000000E+06,      /* J = 40 */
(PID.TID 0000.0001)                 4.050000000000000E+06,      /* J = 41 */
(PID.TID 0000.0001)                 4.150000000000000E+06,      /* J = 42 */
(PID.TID 0000.0001)                 4.250000000000000E+06,      /* J = 43 */
(PID.TID 0000.0001)                 4.350000000000000E+06,      /* J = 44 */
(PID.TID 0000.0001)                 4.450000000000000E+06,      /* J = 45 */
(PID.TID 0000.0001)                 4.550000000000000E+06,      /* J = 46 */
(PID.TID 0000.0001)                 4.650000000000000E+06,      /* J = 47 */
(PID.TID 0000.0001)                 4.750000000000000E+06,      /* J = 48 */
(PID.TID 0000.0001)                 4.850000000000000E+06,      /* J = 49 */
(PID.TID 0000.0001)                 4.950000000000000E+06,      /* J = 50 */
(PID.TID 0000.0001)                 5.050000000000000E+06,      /* J = 51 */
(PID.TID 0000.0001)                 5.150000000000000E+06,      /* J = 52 */
(PID.TID 0000.0001)                 5.250000000000000E+06,      /* J = 53 */
(PID.TID 0000.0001)                 5.350000000000000E+06,      /* J = 54 */
(PID.TID 0000.0001)                 5.450000000000000E+06,      /* J = 55 */
(PID.TID 0000.0001)                 5.550000000000000E+06,      /* J = 56 */
(PID.TID 0000.0001)                 5.650000000000000E+06,      /* J = 57 */
(PID.TID 0000.0001)                 5.750000000000000E+06,      /* J = 58 */
(PID.TID 0000.0001)                 5.850000000000000E+06,      /* J = 59 */
(PID.TID 0000.0001)                 5.950000000000000E+06       /* J = 60 */
(PID.TID 0000.0001)     ;
(PID.TID 0000.0001) rcoord =   /* P-point R coordinate (  units of r ) */
(PID.TID 0000.0001)                -2.500000000000000E+02,      /* K =  1 */
(PID.TID 0000.0001)                -7.500000000000000E+02,      /* K =  2 */
(PID.TID 0000.0001)                -1.250000000000000E+03,      /* K =  3 */
(PID.TID 0000.0001)                -1.750000000000000E+03       /* K =  4 */
(PID.TID 0000.0001)     ;
(PID.TID 0000.0001) rF =   /* W-Interf. R coordinate (  units of r ) */
(PID.TID 0000.0001)                 0.000000000000000E+00,      /* K =  1 */
(PID.TID 0000.0001)                -5.000000000000000E+02,      /* K =  2 */
(PID.TID 0000.0001)                -1.000000000000000E+03,      /* K =  3 */
(PID.TID 0000.0001)                -1.500000000000000E+03,      /* K =  4 */
(PID.TID 0000.0001)                -2.000000000000000E+03       /* K =  5 */
(PID.TID 0000.0001)     ;
(PID.TID 0000.0001) deepFacC = /* deep-model grid factor @ cell-Center (-) */
(PID.TID 0000.0001)     4 @  1.000000000000000E+00              /* K =  1:  4 */
(PID.TID 0000.0001)     ;
(PID.TID 0000.0001) deepFacF = /* deep-model grid factor @ W-Interface (-) */
(PID.TID 0000.0001)     5 @  1.000000000000000E+00              /* K =  1:  5 */
(PID.TID 0000.0001)     ;
(PID.TID 0000.0001) rVel2wUnit = /* convert units: rVel -> wSpeed (=1 if z-coord)*/
(PID.TID 0000.0001)     5 @  1.000000000000000E+00              /* K =  1:  5 */
(PID.TID 0000.0001)     ;
(PID.TID 0000.0001) wUnit2rVel = /* convert units: wSpeed -> rVel (=1 if z-coord)*/
(PID.TID 0000.0001)     5 @  1.000000000000000E+00              /* K =  1:  5 */
(PID.TID 0000.0001)     ;
(PID.TID 0000.0001) dBdrRef = /* Vertical gradient of reference boyancy [(m/s/r)^2)] */
(PID.TID 0000.0001)                 0.000000000000000E+00,      /* K =  1 */
(PID.TID 0000.0001)                 3.924000186379998E-05,      /* K =  2 */
(PID.TID 0000.0001)     2 @  7.848000372759998E-06              /* K =  3:  4 */
(PID.TID 0000.0001)     ;
(PID.TID 0000.0001) rotateGrid = /* use rotated grid ( True/False ) */
(PID.TID 0000.0001)                   F
(PID.TID 0000.0001)     ;
(PID.TID 0000.0001) phiEuler = /* Euler angle, rotation about original z-coordinate [rad] */
(PID.TID 0000.0001)                 0.000000000000000E+00
(PID.TID 0000.0001)     ;
(PID.TID 0000.0001) thetaEuler = /* Euler angle, rotation about new x-coordinate [rad] */
(PID.TID 0000.0001)                 0.000000000000000E+00
(PID.TID 0000.0001)     ;
(PID.TID 0000.0001) psiEuler = /* Euler angle, rotation about new z-coordinate [rad] */
(PID.TID 0000.0001)                 0.000000000000000E+00
(PID.TID 0000.0001)     ;
(PID.TID 0000.0001) dxF =  /* dxF(:,1,:,1) ( units: m ) */
(PID.TID 0000.0001)    60 @  1.000000000000000E+05              /* I =  1: 60 */
(PID.TID 0000.0001)     ;
(PID.TID 0000.0001) dxF =  /* dxF(1,:,1,:) ( units: m ) */
(PID.TID 0000.0001)    60 @  1.000000000000000E+05              /* J =  1: 60 */
(PID.TID 0000.0001)     ;
(PID.TID 0000.0001) dyF =  /* dyF(:,1,:,1) ( units: m ) */
(PID.TID 0000.0001)    60 @  1.000000000000000E+05              /* I =  1: 60 */
(PID.TID 0000.0001)     ;
(PID.TID 0000.0001) dyF =  /* dyF(1,:,1,:) ( units: m ) */
(PID.TID 0000.0001)    60 @  1.000000000000000E+05              /* J =  1: 60 */
(PID.TID 0000.0001)     ;
(PID.TID 0000.0001) dxG =  /* dxG(:,1,:,1) ( units: m ) */
(PID.TID 0000.0001)    60 @  1.000000000000000E+05              /* I =  1: 60 */
(PID.TID 0000.0001)     ;
(PID.TID 0000.0001) dxG =  /* dxG(1,:,1,:) ( units: m ) */
(PID.TID 0000.0001)    60 @  1.000000000000000E+05              /* J =  1: 60 */
(PID.TID 0000.0001)     ;
(PID.TID 0000.0001) dyG =  /* dyG(:,1,:,1) ( units: m ) */
(PID.TID 0000.0001)    60 @  1.000000000000000E+05              /* I =  1: 60 */
(PID.TID 0000.0001)     ;
(PID.TID 0000.0001) dyG =  /* dyG(1,:,1,:) ( units: m ) */
(PID.TID 0000.0001)    60 @  1.000000000000000E+05              /* J =  1: 60 */
(PID.TID 0000.0001)     ;
(PID.TID 0000.0001) dxC =  /* dxC(:,1,:,1) ( units: m ) */
(PID.TID 0000.0001)    60 @  1.000000000000000E+05              /* I =  1: 60 */
(PID.TID 0000.0001)     ;
(PID.TID 0000.0001) dxC =  /* dxC(1,:,1,:) ( units: m ) */
(PID.TID 0000.0001)    60 @  1.000000000000000E+05              /* J =  1: 60 */
(PID.TID 0000.0001)     ;
(PID.TID 0000.0001) dyC =  /* dyC(:,1,:,1) ( units: m ) */
(PID.TID 0000.0001)    60 @  1.000000000000000E+05              /* I =  1: 60 */
(PID.TID 0000.0001)     ;
(PID.TID 0000.0001) dyC =  /* dyC(1,:,1,:) ( units: m ) */
(PID.TID 0000.0001)    60 @  1.000000000000000E+05              /* J =  1: 60 */
(PID.TID 0000.0001)     ;
(PID.TID 0000.0001) dxV =  /* dxV(:,1,:,1) ( units: m ) */
(PID.TID 0000.0001)    60 @  1.000000000000000E+05              /* I =  1: 60 */
(PID.TID 0000.0001)     ;
(PID.TID 0000.0001) dxV =  /* dxV(1,:,1,:) ( units: m ) */
(PID.TID 0000.0001)    60 @  1.000000000000000E+05              /* J =  1: 60 */
(PID.TID 0000.0001)     ;
(PID.TID 0000.0001) dyU =  /* dyU(:,1,:,1) ( units: m ) */
(PID.TID 0000.0001)    60 @  1.000000000000000E+05              /* I =  1: 60 */
(PID.TID 0000.0001)     ;
(PID.TID 0000.0001) dyU =  /* dyU(1,:,1,:) ( units: m ) */
(PID.TID 0000.0001)    60 @  1.000000000000000E+05              /* J =  1: 60 */
(PID.TID 0000.0001)     ;
(PID.TID 0000.0001) rA  =  /* rA (:,1,:,1) ( units: m^2 ) */
(PID.TID 0000.0001)    60 @  1.000000000000000E+10              /* I =  1: 60 */
(PID.TID 0000.0001)     ;
(PID.TID 0000.0001) rA  =  /* rA (1,:,1,:) ( units: m^2 ) */
(PID.TID 0000.0001)    60 @  1.000000000000000E+10              /* J =  1: 60 */
(PID.TID 0000.0001)     ;
(PID.TID 0000.0001) rAw =  /* rAw(:,1,:,1) ( units: m^2 ) */
(PID.TID 0000.0001)    60 @  1.000000000000000E+10              /* I =  1: 60 */
(PID.TID 0000.0001)     ;
(PID.TID 0000.0001) rAw =  /* rAw(1,:,1,:) ( units: m^2 ) */
(PID.TID 0000.0001)    60 @  1.000000000000000E+10              /* J =  1: 60 */
(PID.TID 0000.0001)     ;
(PID.TID 0000.0001) rAs =  /* rAs(:,1,:,1) ( units: m^2 ) */
(PID.TID 0000.0001)    60 @  1.000000000000000E+10              /* I =  1: 60 */
(PID.TID 0000.0001)     ;
(PID.TID 0000.0001) rAs =  /* rAs(1,:,1,:) ( units: m^2 ) */
(PID.TID 0000.0001)    60 @  1.000000000000000E+10              /* J =  1: 60 */
(PID.TID 0000.0001)     ;
(PID.TID 0000.0001) globalArea = /* Integrated horizontal Area (m^2) */
(PID.TID 0000.0001)                 2.817000000000000E+13
(PID.TID 0000.0001)     ;
(PID.TID 0000.0001) // =======================================================
(PID.TID 0000.0001) // End of Model config. summary
(PID.TID 0000.0001) // =======================================================
(PID.TID 0000.0001) 
(PID.TID 0000.0001) == Packages configuration : Check & print summary ==
(PID.TID 0000.0001) 
(PID.TID 0000.0001) GAD_CHECK: #define ALLOW_GENERIC_ADVDIFF
(PID.TID 0000.0001) // =======================================================
(PID.TID 0000.0001) // CONFIG_CHECK : Normal End
(PID.TID 0000.0001) // =======================================================
(PID.TID 0000.0001) 
(PID.TID 0000.0001) // =======================================================
(PID.TID 0000.0001) // Field Initial Temperature at iteration          1
(PID.TID 0000.0001) // CMIN =          2.000000000000000E+01
(PID.TID 0000.0001) // CMAX =          2.000000000000000E+01
(PID.TID 0000.0001) // CINT =          0.000000000000000E+00
(PID.TID 0000.0001) // SYMBOLS (CMIN->CMAX): -abcdefghijklmnopqrstuvwxyz+
(PID.TID 0000.0001) //                  0.0: .
(PID.TID 0000.0001) // RANGE I (Lo:Hi:Step):(   1:  60:   1)
(PID.TID 0000.0001) // RANGE J (Lo:Hi:Step):(  60:   1:  -1)
(PID.TID 0000.0001) // RANGE K (Lo:Hi:Step):(   1:   1:   1)
(PID.TID 0000.0001) // =======================================================
(PID.TID 0000.0001) // =======================================================
(PID.TID 0000.0001) // END OF FIELD                                          =
(PID.TID 0000.0001) // =======================================================
(PID.TID 0000.0001) 
(PID.TID 0000.0001) // =======================================================
(PID.TID 0000.0001) // Field Initial Salinity at iteration          1
(PID.TID 0000.0001) // CMIN =          1.000000000000000E+01
(PID.TID 0000.0001) // CMAX =          1.000000000000000E+01
(PID.TID 0000.0001) // CINT =          0.000000000000000E+00
(PID.TID 0000.0001) // SYMBOLS (CMIN->CMAX): -abcdefghijklmnopqrstuvwxyz+
(PID.TID 0000.0001) //                  0.0: .
(PID.TID 0000.0001) // RANGE I (Lo:Hi:Step):(   1:  60:   1)
(PID.TID 0000.0001) // RANGE J (Lo:Hi:Step):(  60:   1:  -1)
(PID.TID 0000.0001) // RANGE K (Lo:Hi:Step):(   1:   1:   1)
(PID.TID 0000.0001) // =======================================================
(PID.TID 0000.0001) // =======================================================
(PID.TID 0000.0001) // END OF FIELD                                          =
(PID.TID 0000.0001) // =======================================================
(PID.TID 0000.0001) 
(PID.TID 0000.0001) Start initial hydrostatic pressure computation
(PID.TID 0000.0001) Pressure is predetermined for buoyancyRelation OCEANIC
(PID.TID 0000.0001) 
(PID.TID 0000.0001)  MDS_READ_FIELD: opening global file: pLoad.bin
(PID.TID 0000.0001)  write diagnostics summary to file ioUnit:      6
Iter.Nb:         0 ; Time(s):  0.0000000000000E+00
------------------------------------------------------------------------
2D/3D diagnostics: Number of lists:     1
------------------------------------------------------------------------
listId=    1 ; file name: t_Diag
 nFlds, nActive,       freq     &     phase        , nLev               
    2  |    2  |     43200.000000         0.000000 |   4
 levels:   1   2   3   4
 diag# | name   |   ipt  |  iMate | kLev|   count |   mate.C|           
    26 |THETA   |      1 |      0 |   4 |       0 |
    33 |THETASQ |      5 |      0 |   4 |       0 |
------------------------------------------------------------------------
Global & Regional Statistics diagnostics: Number of lists:     1
------------------------------------------------------------------------
listId=   1 ; file name: dynStDiag
 nFlds, nActive,       freq     &     phase        |                    
    4  |    4  |    -21600.000000         0.000000 |
 Regions:   0
 diag# | name   |   ipt  |  iMate |    Volume   |   mate-Vol. |         
    23 |ETAN    |      1 |      0 | 0.00000E+00 |
   136 |momKE   |      2 |      0 | 0.00000E+00 |
    26 |THETA   |      6 |      0 | 0.00000E+00 |
    33 |THETASQ |     10 |      0 | 0.00000E+00 |
------------------------------------------------------------------------
(PID.TID 0000.0001) // =======================================================
(PID.TID 0000.0001) // Model current state
(PID.TID 0000.0001) // =======================================================
(PID.TID 0000.0001) 
(PID.TID 0000.0001) // =======================================================
(PID.TID 0000.0001) // Begin MONITOR dynamic field statistics
(PID.TID 0000.0001) // =======================================================
(PID.TID 0000.0001) %MON time_tsnumber                =                     0
(PID.TID 0000.0001) %MON time_secondsf                =   0.0000000000000E+00
(PID.TID 0000.0001) %MON dynstat_eta_max              =   0.0000000000000E+00
(PID.TID 0000.0001) %MON dynstat_eta_min              =   0.0000000000000E+00
(PID.TID 0000.0001) %MON dynstat_eta_mean             =   0.0000000000000E+00
(PID.TID 0000.0001) %MON dynstat_eta_sd               =   0.0000000000000E+00
(PID.TID 0000.0001) %MON dynstat_eta_del2             =   0.0000000000000E+00
(PID.TID 0000.0001) %MON dynstat_uvel_max             =   0.0000000000000E+00
(PID.TID 0000.0001) %MON dynstat_uvel_min             =   0.0000000000000E+00
(PID.TID 0000.0001) %MON dynstat_uvel_mean            =   0.0000000000000E+00
(PID.TID 0000.0001) %MON dynstat_uvel_sd              =   0.0000000000000E+00
(PID.TID 0000.0001) %MON dynstat_uvel_del2            =   0.0000000000000E+00
(PID.TID 0000.0001) %MON dynstat_vvel_max             =   0.0000000000000E+00
(PID.TID 0000.0001) %MON dynstat_vvel_min             =   0.0000000000000E+00
(PID.TID 0000.0001) %MON dynstat_vvel_mean            =   0.0000000000000E+00
(PID.TID 0000.0001) %MON dynstat_vvel_sd              =   0.0000000000000E+00
(PID.TID 0000.0001) %MON dynstat_vvel_del2            =   0.0000000000000E+00
(PID.TID 0000.0001) %MON dynstat_wvel_max             =   0.0000000000000E+00
(PID.TID 0000.0001) %MON dynstat_wvel_min             =   0.0000000000000E+00
(PID.TID 0000.0001) %MON dynstat_wvel_mean            =   0.0000000000000E+00
(PID.TID 0000.0001) %MON dynstat_wvel_sd              =   0.0000000000000E+00
(PID.TID 0000.0001) %MON dynstat_wvel_del2            =   0.0000000000000E+00
(PID.TID 0000.0001) %MON dynstat_theta_max            =   2.0000000000000E+01
(PID.TID 0000.0001) %MON dynstat_theta_min            =   6.0000000000000E+00
(PID.TID 0000.0001) %MON dynstat_theta_mean           =   1.1000000000000E+01
(PID.TID 0000.0001) %MON dynstat_theta_sd             =   5.3851648071345E+00
(PID.TID 0000.0001) %MON dynstat_theta_del2           =   0.0000000000000E+00
(PID.TID 0000.0001) %MON dynstat_salt_max             =   1.0000000000000E+01
(PID.TID 0000.0001) %MON dynstat_salt_min             =   1.0000000000000E+01
(PID.TID 0000.0001) %MON dynstat_salt_mean            =   1.0000000000000E+01
(PID.TID 0000.0001) %MON dynstat_salt_sd              =   0.0000000000000E+00
(PID.TID 0000.0001) %MON dynstat_salt_del2            =   0.0000000000000E+00
(PID.TID 0000.0001) %MON extforcing_qnet_max          =   0.0000000000000E+00
(PID.TID 0000.0001) %MON extforcing_qnet_min          =   0.0000000000000E+00
(PID.TID 0000.0001) %MON extforcing_qnet_mean         =   0.0000000000000E+00
(PID.TID 0000.0001) %MON extforcing_qnet_sd           =   0.0000000000000E+00
(PID.TID 0000.0001) %MON extforcing_qsw_max           =   0.0000000000000E+00
(PID.TID 0000.0001) %MON extforcing_qsw_min           =   0.0000000000000E+00
(PID.TID 0000.0001) %MON extforcing_qsw_mean          =   0.0000000000000E+00
(PID.TID 0000.0001) %MON extforcing_qsw_sd            =   0.0000000000000E+00
(PID.TID 0000.0001) %MON extforcing_empmr_max         =   0.0000000000000E+00
(PID.TID 0000.0001) %MON extforcing_empmr_min         =   0.0000000000000E+00
(PID.TID 0000.0001) %MON extforcing_empmr_mean        =   0.0000000000000E+00
(PID.TID 0000.0001) %MON extforcing_empmr_sd          =   0.0000000000000E+00
(PID.TID 0000.0001) %MON advcfl_uvel_max              =   0.0000000000000E+00
(PID.TID 0000.0001) %MON advcfl_vvel_max              =   0.0000000000000E+00
(PID.TID 0000.0001) %MON advcfl_wvel_max              =   0.0000000000000E+00
(PID.TID 0000.0001) %MON advcfl_W_hf_max              =   0.0000000000000E+00
(PID.TID 0000.0001) %MON pe_b_mean                    =   0.0000000000000E+00
(PID.TID 0000.0001) %MON ke_max                       =   0.0000000000000E+00
(PID.TID 0000.0001) %MON ke_mean                      =   0.0000000000000E+00
(PID.TID 0000.0001) %MON ke_vol                       =   5.6340000000000E+16
(PID.TID 0000.0001) %MON vort_r_min                   =   0.0000000000000E+00
(PID.TID 0000.0001) %MON vort_r_max                   =   0.0000000000000E+00
(PID.TID 0000.0001) %MON vort_a_mean                  =   9.9999997473787E-05
(PID.TID 0000.0001) %MON vort_a_sd                    =  -3.7388563687397E-22
(PID.TID 0000.0001) %MON vort_p_mean                  =   1.0398839476244E-04
(PID.TID 0000.0001) %MON vort_p_sd                    =   3.0798695482351E-05
(PID.TID 0000.0001) %MON surfExpan_theta_mean         =   0.0000000000000E+00
(PID.TID 0000.0001) %MON surfExpan_salt_mean          =   0.0000000000000E+00
(PID.TID 0000.0001) // =======================================================
(PID.TID 0000.0001) // End MONITOR dynamic field statistics
(PID.TID 0000.0001) // =======================================================
 cg2d: Sum(rhs),rhsMax =  -5.25135490647699E-14  4.24920568377690E-01
(PID.TID 0000.0001)                    cg2d_init_res =    1.43440290629602E+01
(PID.TID 0000.0001)                       cg2d_iters =    35
(PID.TID 0000.0001)                         cg2d_res =    8.75074866777077E-14
(PID.TID 0000.0001) // =======================================================
(PID.TID 0000.0001) // Begin MONITOR dynamic field statistics
(PID.TID 0000.0001) // =======================================================
(PID.TID 0000.0001) %MON time_tsnumber                =                     1
(PID.TID 0000.0001) %MON time_secondsf                =   1.2000000000000E+03
(PID.TID 0000.0001) %MON dynstat_eta_max              =   6.3479370990432E-02
(PID.TID 0000.0001) %MON dynstat_eta_min              =  -6.3479370990432E-02
(PID.TID 0000.0001) %MON dynstat_eta_mean             =   6.0233488567270E-19
(PID.TID 0000.0001) %MON dynstat_eta_sd               =   2.6630513836836E-02
(PID.TID 0000.0001) %MON dynstat_eta_del2             =   4.6249564810711E-04
(PID.TID 0000.0001) %MON dynstat_uvel_max             =   7.6757219713049E-03
(PID.TID 0000.0001) %MON dynstat_uvel_min             =  -7.6757219713049E-03
(PID.TID 0000.0001) %MON dynstat_uvel_mean            =  -1.7704179057288E-19
(PID.TID 0000.0001) %MON dynstat_uvel_sd              =   3.4801394592965E-03
(PID.TID 0000.0001) %MON dynstat_uvel_del2            =   4.7921736224900E-05
(PID.TID 0000.0001) %MON dynstat_vvel_max             =   7.6757219713049E-03
(PID.TID 0000.0001) %MON dynstat_vvel_min             =  -7.6757219713049E-03
(PID.TID 0000.0001) %MON dynstat_vvel_mean            =  -1.5579677570413E-18
(PID.TID 0000.0001) %MON dynstat_vvel_sd              =   3.4801394592965E-03
(PID.TID 0000.0001) %MON dynstat_vvel_del2            =   4.7921736224900E-05
(PID.TID 0000.0001) %MON dynstat_wvel_max             =   5.2899464444229E-05
(PID.TID 0000.0001) %MON dynstat_wvel_min             =  -5.2899464444230E-05
(PID.TID 0000.0001) %MON dynstat_wvel_mean            =  -7.9285453590674E-22
(PID.TID 0000.0001) %MON dynstat_wvel_sd              =   1.3909628815527E-05
(PID.TID 0000.0001) %MON dynstat_wvel_del2            =   2.4088308242677E-07
(PID.TID 0000.0001) %MON dynstat_theta_max            =   1.9999519999953E+01
(PID.TID 0000.0001) %MON dynstat_theta_min            =   6.0000960000094E+00
(PID.TID 0000.0001) %MON dynstat_theta_mean           =   1.1000000000000E+01
(PID.TID 0000.0001) %MON dynstat_theta_sd             =   5.3849241495600E+00
(PID.TID 0000.0001) %MON dynstat_theta_del2           =   0.0000000000000E+00
(PID.TID 0000.0001) %MON dynstat_salt_max             =   1.0000000000000E+01
(PID.TID 0000.0001) %MON dynstat_salt_min             =   1.0000000000000E+01
(PID.TID 0000.0001) %MON dynstat_salt_mean            =   1.0000000000000E+01
(PID.TID 0000.0001) %MON dynstat_salt_sd              =   0.0000000000000E+00
(PID.TID 0000.0001) %MON dynstat_salt_del2            =   0.0000000000000E+00
(PID.TID 0000.0001) %MON extforcing_qnet_max          =   0.0000000000000E+00
(PID.TID 0000.0001) %MON extforcing_qnet_min          =   0.0000000000000E+00
(PID.TID 0000.0001) %MON extforcing_qnet_mean         =   0.0000000000000E+00
(PID.TID 0000.0001) %MON extforcing_qnet_sd           =   0.0000000000000E+00
(PID.TID 0000.0001) %MON extforcing_qsw_max           =   0.0000000000000E+00
(PID.TID 0000.0001) %MON extforcing_qsw_min           =   0.0000000000000E+00
(PID.TID 0000.0001) %MON extforcing_qsw_mean          =   0.0000000000000E+00
(PID.TID 0000.0001) %MON extforcing_qsw_sd            =   0.0000000000000E+00
(PID.TID 0000.0001) %MON extforcing_empmr_max         =   0.0000000000000E+00
(PID.TID 0000.0001) %MON extforcing_empmr_min         =   0.0000000000000E+00
(PID.TID 0000.0001) %MON extforcing_empmr_mean        =   0.0000000000000E+00
(PID.TID 0000.0001) %MON extforcing_empmr_sd          =   0.0000000000000E+00
(PID.TID 0000.0001) %MON advcfl_uvel_max              =   9.2108661328798E-05
(PID.TID 0000.0001) %MON advcfl_vvel_max              =   9.2108661328798E-05
(PID.TID 0000.0001) %MON advcfl_wvel_max              =   2.5391744139273E-04
(PID.TID 0000.0001) %MON advcfl_W_hf_max              =   9.5219040522275E-05
(PID.TID 0000.0001) %MON pe_b_mean                    =  -2.5454693773434E-05
(PID.TID 0000.0001) %MON ke_max                       =   3.1921181536935E-05
(PID.TID 0000.0001) %MON ke_mean                      =   1.1857706875992E-05
(PID.TID 0000.0001) %MON ke_vol                       =   5.6340000000000E+16
(PID.TID 0000.0001) %MON vort_r_min                   =  -3.0468642913745E-08
(PID.TID 0000.0001) %MON vort_r_max                   =   3.0468642913745E-08
(PID.TID 0000.0001) %MON vort_a_mean                  =   9.9999997473787E-05
(PID.TID 0000.0001) %MON vort_a_sd                    =   4.1139800280562E-09
(PID.TID 0000.0001) %MON vort_p_mean                  =   1.0398839476244E-04
(PID.TID 0000.0001) %MON vort_p_sd                    =   3.0798696063269E-05
(PID.TID 0000.0001) %MON surfExpan_theta_mean         =  -2.7242094479345E-20
(PID.TID 0000.0001) %MON surfExpan_salt_mean          =   4.9921799349285E-21
(PID.TID 0000.0001) // =======================================================
(PID.TID 0000.0001) // End MONITOR dynamic field statistics
(PID.TID 0000.0001) // =======================================================
 Compute Stats, Diag. #     23  ETAN      vol(   0 ): 2.817E+13  Parms: SM      M1      
 Compute Stats, Diag. #    136  momKE     vol(   0 ): 5.634E+16  Parms: SM      MR      
 Compute Stats, Diag. #     26  THETA     vol(   0 ): 5.634E+16  Parms: SM      MR      
 Compute Stats, Diag. #     33  THETASQ   vol(   0 ): 5.634E+16  Parms: SM P    MR      
 cg2d: Sum(rhs),rhsMax =  -6.43929354282591E-14  8.65743885741127E-01
(PID.TID 0000.0001)                    cg2d_init_res =    1.13411126828596E+01
(PID.TID 0000.0001)                       cg2d_iters =    36
(PID.TID 0000.0001)                         cg2d_res =    3.85434137912532E-14
(PID.TID 0000.0001) // =======================================================
(PID.TID 0000.0001) // Begin MONITOR dynamic field statistics
(PID.TID 0000.0001) // =======================================================
(PID.TID 0000.0001) %MON time_tsnumber                =                     2
(PID.TID 0000.0001) %MON time_secondsf                =   2.4000000000000E+03
(PID.TID 0000.0001) %MON dynstat_eta_max              =   1.5119313199821E-01
(PID.TID 0000.0001) %MON dynstat_eta_min              =  -1.5119155659914E-01
(PID.TID 0000.0001) %MON dynstat_eta_mean             =  -1.7853379345119E-18
(PID.TID 0000.0001) %MON dynstat_eta_sd               =   7.2547096971338E-02
(PID.TID 0000.0001) %MON dynstat_eta_del2             =   8.5931507583967E-04
(PID.TID 0000.0001) %MON dynstat_uvel_max             =   1.3395139341579E-02
(PID.TID 0000.0001) %MON dynstat_uvel_min             =  -1.3395139341579E-02
(PID.TID 0000.0001) %MON dynstat_uvel_mean            =   2.1245014868745E-19
(PID.TID 0000.0001) %MON dynstat_uvel_sd              =   6.1216010038774E-03
(PID.TID 0000.0001) %MON dynstat_uvel_del2            =   8.5496682480572E-05
(PID.TID 0000.0001) %MON dynstat_vvel_max             =   1.3395112319293E-02
(PID.TID 0000.0001) %MON dynstat_vvel_min             =  -1.3395112319293E-02
(PID.TID 0000.0001) %MON dynstat_vvel_mean            =  -1.0268423853227E-18
(PID.TID 0000.0001) %MON dynstat_vvel_sd              =   6.1215978699643E-03
(PID.TID 0000.0001) %MON dynstat_vvel_del2            =   8.5496485210715E-05
(PID.TID 0000.0001) %MON dynstat_wvel_max             =   8.0653430284234E-05
(PID.TID 0000.0001) %MON dynstat_wvel_min             =  -8.0652117451946E-05
(PID.TID 0000.0001) %MON dynstat_wvel_mean            =   9.9628232952673E-22
(PID.TID 0000.0001) %MON dynstat_wvel_sd              =   2.4017891970739E-05
(PID.TID 0000.0001) %MON dynstat_wvel_del2            =   2.6572941927444E-07
(PID.TID 0000.0001) %MON dynstat_theta_max            =   1.9999801752772E+01
(PID.TID 0000.0001) %MON dynstat_theta_min            =   6.0001412115952E+00
(PID.TID 0000.0001) %MON dynstat_theta_mean           =   1.1000000000000E+01
(PID.TID 0000.0001) %MON dynstat_theta_sd             =   5.3846835334683E+00
(PID.TID 0000.0001) %MON dynstat_theta_del2           =   3.3297903003912E-06
(PID.TID 0000.0001) %MON dynstat_salt_max             =   1.0000000000000E+01
(PID.TID 0000.0001) %MON dynstat_salt_min             =   1.0000000000000E+01
(PID.TID 0000.0001) %MON dynstat_salt_mean            =   1.0000000000000E+01
(PID.TID 0000.0001) %MON dynstat_salt_sd              =   0.0000000000000E+00
(PID.TID 0000.0001) %MON dynstat_salt_del2            =   0.0000000000000E+00
(PID.TID 0000.0001) %MON extforcing_qnet_max          =   0.0000000000000E+00
(PID.TID 0000.0001) %MON extforcing_qnet_min          =   0.0000000000000E+00
(PID.TID 0000.0001) %MON extforcing_qnet_mean         =   0.0000000000000E+00
(PID.TID 0000.0001) %MON extforcing_qnet_sd           =   0.0000000000000E+00
(PID.TID 0000.0001) %MON extforcing_qsw_max           =   0.0000000000000E+00
(PID.TID 0000.0001) %MON extforcing_qsw_min           =   0.0000000000000E+00
(PID.TID 0000.0001) %MON extforcing_qsw_mean          =   0.0000000000000E+00
(PID.TID 0000.0001) %MON extforcing_qsw_sd            =   0.0000000000000E+00
(PID.TID 0000.0001) %MON extforcing_empmr_max         =   0.0000000000000E+00
(PID.TID 0000.0001) %MON extforcing_empmr_min         =   0.0000000000000E+00
(PID.TID 0000.0001) %MON extforcing_empmr_mean        =   0.0000000000000E+00
(PID.TID 0000.0001) %MON extforcing_empmr_sd          =   0.0000000000000E+00
(PID.TID 0000.0001) %MON advcfl_uvel_max              =   1.6074166803827E-04
(PID.TID 0000.0001) %MON advcfl_vvel_max              =   1.6074134377085E-04
(PID.TID 0000.0001) %MON advcfl_wvel_max              =   3.8713648375232E-04
(PID.TID 0000.0001) %MON advcfl_W_hf_max              =   1.4517513675466E-04
(PID.TID 0000.0001) %MON pe_b_mean                    =  -6.1716094104658E-05
(PID.TID 0000.0001) %MON ke_max                       =   1.0232835805864E-04
(PID.TID 0000.0001) %MON ke_mean                      =   3.6689114632281E-05
(PID.TID 0000.0001) %MON ke_vol                       =   5.6340000000000E+16
(PID.TID 0000.0001) %MON vort_r_min                   =  -5.3553835802535E-08
(PID.TID 0000.0001) %MON vort_r_max                   =   5.3553950501839E-08
(PID.TID 0000.0001) %MON vort_a_mean                  =   9.9999997473787E-05
(PID.TID 0000.0001) %MON vort_a_sd                    =   6.8687061884151E-09
(PID.TID 0000.0001) %MON vort_p_mean                  =   1.0398839476244E-04
(PID.TID 0000.0001) %MON vort_p_sd                    =   3.0798697043130E-05
(PID.TID 0000.0001) %MON surfExpan_theta_mean         =  -1.2195951170641E-08
(PID.TID 0000.0001) %MON surfExpan_salt_mean          =   8.5958065104730E-21
(PID.TID 0000.0001) // =======================================================
(PID.TID 0000.0001) // End MONITOR dynamic field statistics
(PID.TID 0000.0001) // =======================================================
 cg2d: Sum(rhs),rhsMax =  -2.84217094304040E-14  1.24139236868753E+00
(PID.TID 0000.0001)                    cg2d_init_res =    9.57942556562956E+00
(PID.TID 0000.0001)                       cg2d_iters =    35
(PID.TID 0000.0001)                         cg2d_res =    5.98908055475709E-14
(PID.TID 0000.0001) // =======================================================
(PID.TID 0000.0001) // Begin MONITOR dynamic field statistics
(PID.TID 0000.0001) // =======================================================
(PID.TID 0000.0001) %MON time_tsnumber                =                     3
(PID.TID 0000.0001) %MON time_secondsf                =   3.6000000000000E+03
(PID.TID 0000.0001) %MON dynstat_eta_max              =   2.7302472485063E-01
(PID.TID 0000.0001) %MON dynstat_eta_min              =  -2.7301831916537E-01
(PID.TID 0000.0001) %MON dynstat_eta_mean             =  -6.2400160817891E-19
(PID.TID 0000.0001) %MON dynstat_eta_sd               =   1.2868290270110E-01
(PID.TID 0000.0001) %MON dynstat_eta_del2             =   1.3699502077263E-03
(PID.TID 0000.0001) %MON dynstat_uvel_max             =   1.6490550277589E-02
(PID.TID 0000.0001) %MON dynstat_uvel_min             =  -1.6490550277589E-02
(PID.TID 0000.0001) %MON dynstat_uvel_mean            =  -8.4980059474982E-19
(PID.TID 0000.0001) %MON dynstat_uvel_sd              =   7.6702048920945E-03
(PID.TID 0000.0001) %MON dynstat_uvel_del2            =   1.0593896696028E-04
(PID.TID 0000.0001) %MON dynstat_vvel_max             =   1.6490515095951E-02
(PID.TID 0000.0001) %MON dynstat_vvel_min             =  -1.6490515095951E-02
(PID.TID 0000.0001) %MON dynstat_vvel_mean            =  -2.1245014868745E-19
(PID.TID 0000.0001) %MON dynstat_vvel_sd              =   7.6701940855095E-03
(PID.TID 0000.0001) %MON dynstat_vvel_del2            =   1.0593815030524E-04
(PID.TID 0000.0001) %MON dynstat_wvel_max             =   1.0152628080681E-04
(PID.TID 0000.0001) %MON dynstat_wvel_min             =  -1.0152225556943E-04
(PID.TID 0000.0001) %MON dynstat_wvel_mean            =  -4.3526897891944E-22
(PID.TID 0000.0001) %MON dynstat_wvel_sd              =   2.9394537291183E-05
(PID.TID 0000.0001) %MON dynstat_wvel_del2            =   3.1418456750110E-07
(PID.TID 0000.0001) %MON dynstat_theta_max            =   2.0000129382418E+01
(PID.TID 0000.0001) %MON dynstat_theta_min            =   6.0001833595010E+00
(PID.TID 0000.0001) %MON dynstat_theta_mean           =   1.1000000011708E+01
(PID.TID 0000.0001) %MON dynstat_theta_sd             =   5.3844429625695E+00
(PID.TID 0000.0001) %MON dynstat_theta_del2           =   5.1254163927279E-06
(PID.TID 0000.0001) %MON dynstat_salt_max             =   1.0000000000000E+01
(PID.TID 0000.0001) %MON dynstat_salt_min             =   1.0000000000000E+01
(PID.TID 0000.0001) %MON dynstat_salt_mean            =   1.0000000000000E+01
(PID.TID 0000.0001) %MON dynstat_salt_sd              =   0.0000000000000E+00
(PID.TID 0000.0001) %MON dynstat_salt_del2            =   0.0000000000000E+00
(PID.TID 0000.0001) %MON extforcing_qnet_max          =   0.0000000000000E+00
(PID.TID 0000.0001) %MON extforcing_qnet_min          =   0.0000000000000E+00
(PID.TID 0000.0001) %MON extforcing_qnet_mean         =   0.0000000000000E+00
(PID.TID 0000.0001) %MON extforcing_qnet_sd           =   0.0000000000000E+00
(PID.TID 0000.0001) %MON extforcing_qsw_max           =   0.0000000000000E+00
(PID.TID 0000.0001) %MON extforcing_qsw_min           =   0.0000000000000E+00
(PID.TID 0000.0001) %MON extforcing_qsw_mean          =   0.0000000000000E+00
(PID.TID 0000.0001) %MON extforcing_qsw_sd            =   0.0000000000000E+00
(PID.TID 0000.0001) %MON extforcing_empmr_max         =   0.0000000000000E+00
(PID.TID 0000.0001) %MON extforcing_empmr_min         =   0.0000000000000E+00
(PID.TID 0000.0001) %MON extforcing_empmr_mean        =   0.0000000000000E+00
(PID.TID 0000.0001) %MON extforcing_empmr_sd          =   0.0000000000000E+00
(PID.TID 0000.0001) %MON advcfl_uvel_max              =   1.9788659833204E-04
(PID.TID 0000.0001) %MON advcfl_vvel_max              =   1.9788617615238E-04
(PID.TID 0000.0001) %MON advcfl_wvel_max              =   4.8732617101942E-04
(PID.TID 0000.0001) %MON advcfl_W_hf_max              =   1.8273726349593E-04
(PID.TID 0000.0001) %MON pe_b_mean                    =  -9.2322403856661E-05
(PID.TID 0000.0001) %MON ke_max                       =   1.6788193293577E-04
(PID.TID 0000.0001) %MON ke_mean                      =   5.7599767918430E-05
(PID.TID 0000.0001) %MON ke_vol                       =   5.6340000000000E+16
(PID.TID 0000.0001) %MON vort_r_min                   =  -6.3218577257702E-08
(PID.TID 0000.0001) %MON vort_r_max                   =   6.3218790737737E-08
(PID.TID 0000.0001) %MON vort_a_mean                  =   9.9999997473787E-05
(PID.TID 0000.0001) %MON vort_a_sd                    =   8.6655427625656E-09
(PID.TID 0000.0001) %MON vort_p_mean                  =   1.0398839476244E-04
(PID.TID 0000.0001) %MON vort_p_sd                    =   3.0798697747726E-05
(PID.TID 0000.0001) %MON surfExpan_theta_mean         =  -3.5081286785946E-08
(PID.TID 0000.0001) %MON surfExpan_salt_mean          =  -1.2695345000083E-20
(PID.TID 0000.0001) // =======================================================
(PID.TID 0000.0001) // End MONITOR dynamic field statistics
(PID.TID 0000.0001) // =======================================================
 cg2d: Sum(rhs),rhsMax =  -1.68753899743024E-14  1.56919931271435E+00
(PID.TID 0000.0001)                    cg2d_init_res =    7.72675657789600E+00
(PID.TID 0000.0001)                       cg2d_iters =    35
(PID.TID 0000.0001)                         cg2d_res =    4.62309235187577E-14
(PID.TID 0000.0001) // =======================================================
(PID.TID 0000.0001) // Begin MONITOR dynamic field statistics
(PID.TID 0000.0001) // =======================================================
(PID.TID 0000.0001) %MON time_tsnumber                =                     4
(PID.TID 0000.0001) %MON time_secondsf                =   4.8000000000000E+03
(PID.TID 0000.0001) %MON dynstat_eta_max              =   4.0135526324490E-01
(PID.TID 0000.0001) %MON dynstat_eta_min              =  -4.0134253849589E-01
(PID.TID 0000.0001) %MON dynstat_eta_mean             =   2.6346734567554E-18
(PID.TID 0000.0001) %MON dynstat_eta_sd               =   1.8602144719068E-01
(PID.TID 0000.0001) %MON dynstat_eta_del2             =   1.9426994713566E-03
(PID.TID 0000.0001) %MON dynstat_uvel_max             =   1.7833105776950E-02
(PID.TID 0000.0001) %MON dynstat_uvel_min             =  -1.7833105776950E-02
(PID.TID 0000.0001) %MON dynstat_uvel_mean            =   8.4980059474982E-19
(PID.TID 0000.0001) %MON dynstat_uvel_sd              =   8.1482311904014E-03
(PID.TID 0000.0001) %MON dynstat_uvel_del2            =   1.1036781653672E-04
(PID.TID 0000.0001) %MON dynstat_vvel_max             =   1.7833179397374E-02
(PID.TID 0000.0001) %MON dynstat_vvel_min             =  -1.7833179397374E-02
(PID.TID 0000.0001) %MON dynstat_vvel_mean            =   1.3455176083539E-18
(PID.TID 0000.0001) %MON dynstat_vvel_sd              =   8.1482118274394E-03
(PID.TID 0000.0001) %MON dynstat_vvel_del2            =   1.1036580566676E-04
(PID.TID 0000.0001) %MON dynstat_wvel_max             =   1.0704252261815E-04
(PID.TID 0000.0001) %MON dynstat_wvel_min             =  -1.0703723249346E-04
(PID.TID 0000.0001) %MON dynstat_wvel_mean            =  -1.0253002614547E-21
(PID.TID 0000.0001) %MON dynstat_wvel_sd              =   3.0060928282563E-05
(PID.TID 0000.0001) %MON dynstat_wvel_del2            =   3.1642592322256E-07
(PID.TID 0000.0001) %MON dynstat_theta_max            =   2.0000675533268E+01
(PID.TID 0000.0001) %MON dynstat_theta_min            =   6.0002109373202E+00
(PID.TID 0000.0001) %MON dynstat_theta_mean           =   1.1000000040996E+01
(PID.TID 0000.0001) %MON dynstat_theta_sd             =   5.3842024424618E+00
(PID.TID 0000.0001) %MON dynstat_theta_del2           =   7.7646955728684E-06
(PID.TID 0000.0001) %MON dynstat_salt_max             =   1.0000000000000E+01
(PID.TID 0000.0001) %MON dynstat_salt_min             =   1.0000000000000E+01
(PID.TID 0000.0001) %MON dynstat_salt_mean            =   1.0000000000000E+01
(PID.TID 0000.0001) %MON dynstat_salt_sd              =   0.0000000000000E+00
(PID.TID 0000.0001) %MON dynstat_salt_del2            =   0.0000000000000E+00
(PID.TID 0000.0001) %MON extforcing_qnet_max          =   0.0000000000000E+00
(PID.TID 0000.0001) %MON extforcing_qnet_min          =   0.0000000000000E+00
(PID.TID 0000.0001) %MON extforcing_qnet_mean         =   0.0000000000000E+00
(PID.TID 0000.0001) %MON extforcing_qnet_sd           =   0.0000000000000E+00
(PID.TID 0000.0001) %MON extforcing_qsw_max           =   0.0000000000000E+00
(PID.TID 0000.0001) %MON extforcing_qsw_min           =   0.0000000000000E+00
(PID.TID 0000.0001) %MON extforcing_qsw_mean          =   0.0000000000000E+00
(PID.TID 0000.0001) %MON extforcing_qsw_sd            =   0.0000000000000E+00
(PID.TID 0000.0001) %MON extforcing_empmr_max         =   0.0000000000000E+00
(PID.TID 0000.0001) %MON extforcing_empmr_min         =   0.0000000000000E+00
(PID.TID 0000.0001) %MON extforcing_empmr_mean        =   0.0000000000000E+00
(PID.TID 0000.0001) %MON extforcing_empmr_sd          =   0.0000000000000E+00
(PID.TID 0000.0001) %MON advcfl_uvel_max              =   2.1399726391737E-04
(PID.TID 0000.0001) %MON advcfl_vvel_max              =   2.1399814736244E-04
(PID.TID 0000.0001) %MON advcfl_wvel_max              =   5.1380413297149E-04
(PID.TID 0000.0001) %MON advcfl_W_hf_max              =   1.9264966059014E-04
(PID.TID 0000.0001) %MON pe_b_mean                    =  -1.0784241706191E-04
(PID.TID 0000.0001) %MON ke_max                       =   1.9972165863144E-04
(PID.TID 0000.0001) %MON ke_mean                      =   6.5002950282576E-05
(PID.TID 0000.0001) %MON ke_vol                       =   5.6340000000000E+16
(PID.TID 0000.0001) %MON vort_r_min                   =  -5.9472457847584E-08
(PID.TID 0000.0001) %MON vort_r_max                   =   5.9472502954881E-08
(PID.TID 0000.0001) %MON vort_a_mean                  =   9.9999997473788E-05
(PID.TID 0000.0001) %MON vort_a_sd                    =   1.0054977732173E-08
(PID.TID 0000.0001) %MON vort_p_mean                  =   1.0398839476244E-04
(PID.TID 0000.0001) %MON vort_p_sd                    =   3.0798698097647E-05
(PID.TID 0000.0001) %MON surfExpan_theta_mean         =  -5.8151027276872E-08
(PID.TID 0000.0001) %MON surfExpan_salt_mean          =   2.4597230937661E-20
(PID.TID 0000.0001) // =======================================================
(PID.TID 0000.0001) // End MONITOR dynamic field statistics
(PID.TID 0000.0001) // =======================================================
 cg2d: Sum(rhs),rhsMax =  -1.73638881051374E-13  2.03007403233856E+00
(PID.TID 0000.0001)                    cg2d_init_res =    5.27275693019586E+00
(PID.TID 0000.0001)                       cg2d_iters =    34
(PID.TID 0000.0001)                         cg2d_res =    9.31578205695748E-14
(PID.TID 0000.0001) // =======================================================
(PID.TID 0000.0001) // Begin MONITOR dynamic field statistics
(PID.TID 0000.0001) // =======================================================
(PID.TID 0000.0001) %MON time_tsnumber                =                     5
(PID.TID 0000.0001) %MON time_secondsf                =   6.0000000000000E+03
(PID.TID 0000.0001) %MON dynstat_eta_max              =   5.1882237884876E-01
(PID.TID 0000.0001) %MON dynstat_eta_min              =  -5.1880612417197E-01
(PID.TID 0000.0001) %MON dynstat_eta_mean             =   1.1093361923181E-17
(PID.TID 0000.0001) %MON dynstat_eta_sd               =   2.3660180603593E-01
(PID.TID 0000.0001) %MON dynstat_eta_del2             =   2.4412541427246E-03
(PID.TID 0000.0001) %MON dynstat_uvel_max             =   1.8514914145753E-02
(PID.TID 0000.0001) %MON dynstat_uvel_min             =  -1.8514914145753E-02
(PID.TID 0000.0001) %MON dynstat_uvel_mean            =  -1.4871510408122E-18
(PID.TID 0000.0001) %MON dynstat_uvel_sd              =   7.7432961775657E-03
(PID.TID 0000.0001) %MON dynstat_uvel_del2            =   1.0229444199264E-04
(PID.TID 0000.0001) %MON dynstat_vvel_max             =   1.8515000645291E-02
(PID.TID 0000.0001) %MON dynstat_vvel_min             =  -1.8515000645291E-02
(PID.TID 0000.0001) %MON dynstat_vvel_mean            =  -7.0816716229152E-19
(PID.TID 0000.0001) %MON dynstat_vvel_sd              =   7.7432705874697E-03
(PID.TID 0000.0001) %MON dynstat_vvel_del2            =   1.0229109916712E-04
(PID.TID 0000.0001) %MON dynstat_wvel_max             =   9.8103199735657E-05
(PID.TID 0000.0001) %MON dynstat_wvel_min             =  -9.8100236681362E-05
(PID.TID 0000.0001) %MON dynstat_wvel_mean            =   6.3839450241518E-22
(PID.TID 0000.0001) %MON dynstat_wvel_sd              =   2.6575968176225E-05
(PID.TID 0000.0001) %MON dynstat_wvel_del2            =   2.7464169131514E-07
(PID.TID 0000.0001) %MON dynstat_theta_max            =   2.0001186791515E+01
(PID.TID 0000.0001) %MON dynstat_theta_min            =   6.0002408439403E+00
(PID.TID 0000.0001) %MON dynstat_theta_mean           =   1.1000000084191E+01
(PID.TID 0000.0001) %MON dynstat_theta_sd             =   5.3839619660800E+00
(PID.TID 0000.0001) %MON dynstat_theta_del2           =   1.0351926476589E-05
(PID.TID 0000.0001) %MON dynstat_salt_max             =   1.0000000000000E+01
(PID.TID 0000.0001) %MON dynstat_salt_min             =   1.0000000000000E+01
(PID.TID 0000.0001) %MON dynstat_salt_mean            =   1.0000000000000E+01
(PID.TID 0000.0001) %MON dynstat_salt_sd              =   0.0000000000000E+00
(PID.TID 0000.0001) %MON dynstat_salt_del2            =   0.0000000000000E+00
(PID.TID 0000.0001) %MON extforcing_qnet_max          =   0.0000000000000E+00
(PID.TID 0000.0001) %MON extforcing_qnet_min          =   0.0000000000000E+00
(PID.TID 0000.0001) %MON extforcing_qnet_mean         =   0.0000000000000E+00
(PID.TID 0000.0001) %MON extforcing_qnet_sd           =   0.0000000000000E+00
(PID.TID 0000.0001) %MON extforcing_qsw_max           =   0.0000000000000E+00
(PID.TID 0000.0001) %MON extforcing_qsw_min           =   0.0000000000000E+00
(PID.TID 0000.0001) %MON extforcing_qsw_mean          =   0.0000000000000E+00
(PID.TID 0000.0001) %MON extforcing_qsw_sd            =   0.0000000000000E+00
(PID.TID 0000.0001) %MON extforcing_empmr_max         =   0.0000000000000E+00
(PID.TID 0000.0001) %MON extforcing_empmr_min         =   0.0000000000000E+00
(PID.TID 0000.0001) %MON extforcing_empmr_mean        =   0.0000000000000E+00
(PID.TID 0000.0001) %MON extforcing_empmr_sd          =   0.0000000000000E+00
(PID.TID 0000.0001) %MON advcfl_uvel_max              =   2.2217896413632E-04
(PID.TID 0000.0001) %MON advcfl_vvel_max              =   2.2218000213075E-04
(PID.TID 0000.0001) %MON advcfl_wvel_max              =   4.7089538109749E-04
(PID.TID 0000.0001) %MON advcfl_W_hf_max              =   1.7653443679647E-04
(PID.TID 0000.0001) %MON pe_b_mean                    =  -1.0833714102490E-04
(PID.TID 0000.0001) %MON ke_max                       =   1.9151333362393E-04
(PID.TID 0000.0001) %MON ke_mean                      =   5.8702652020311E-05
(PID.TID 0000.0001) %MON ke_vol                       =   5.6340000000000E+16
(PID.TID 0000.0001) %MON vort_r_min                   =  -4.4715357600742E-08
(PID.TID 0000.0001) %MON vort_r_max                   =   4.4715069700277E-08
(PID.TID 0000.0001) %MON vort_a_mean                  =   9.9999997473788E-05
(PID.TID 0000.0001) %MON vort_a_sd                    =   1.1466699930584E-08
(PID.TID 0000.0001) %MON vort_p_mean                  =   1.0398839476244E-04
(PID.TID 0000.0001) %MON vort_p_sd                    =   3.0798698358239E-05
(PID.TID 0000.0001) %MON surfExpan_theta_mean         =  -6.9650537385091E-08
(PID.TID 0000.0001) %MON surfExpan_salt_mean          =  -6.3476725000416E-21
(PID.TID 0000.0001) // =======================================================
(PID.TID 0000.0001) // End MONITOR dynamic field statistics
(PID.TID 0000.0001) // =======================================================
 cg2d: Sum(rhs),rhsMax =  -3.64153152077051E-14  2.39420912976884E+00
(PID.TID 0000.0001)                    cg2d_init_res =    3.36071929438860E+00
(PID.TID 0000.0001)                       cg2d_iters =    34
(PID.TID 0000.0001)                         cg2d_res =    5.75987797521215E-14
(PID.TID 0000.0001) // =======================================================
(PID.TID 0000.0001) // Begin MONITOR dynamic field statistics
(PID.TID 0000.0001) // =======================================================
(PID.TID 0000.0001) %MON time_tsnumber                =                     6
(PID.TID 0000.0001) %MON time_secondsf                =   7.2000000000000E+03
(PID.TID 0000.0001) %MON dynstat_eta_max              =   6.1139624542210E-01
(PID.TID 0000.0001) %MON dynstat_eta_min              =  -6.1138346860770E-01
(PID.TID 0000.0001) %MON dynstat_eta_mean             =   6.4202832130408E-17
(PID.TID 0000.0001) %MON dynstat_eta_sd               =   2.7443782719094E-01
(PID.TID 0000.0001) %MON dynstat_eta_del2             =   2.7971980158476E-03
(PID.TID 0000.0001) %MON dynstat_uvel_max             =   1.7536193682658E-02
(PID.TID 0000.0001) %MON dynstat_uvel_min             =  -1.7536193682658E-02
(PID.TID 0000.0001) %MON dynstat_uvel_mean            =   2.2661349193329E-18
(PID.TID 0000.0001) %MON dynstat_uvel_sd              =   6.8074157787816E-03
(PID.TID 0000.0001) %MON dynstat_uvel_del2            =   8.6109392045923E-05
(PID.TID 0000.0001) %MON dynstat_vvel_max             =   1.7536261961251E-02
(PID.TID 0000.0001) %MON dynstat_vvel_min             =  -1.7536261961251E-02
(PID.TID 0000.0001) %MON dynstat_vvel_mean            =   1.8412346219579E-18
(PID.TID 0000.0001) %MON dynstat_vvel_sd              =   6.8073867720570E-03
(PID.TID 0000.0001) %MON dynstat_vvel_del2            =   8.6105058739925E-05
(PID.TID 0000.0001) %MON dynstat_wvel_max             =   7.7144782485547E-05
(PID.TID 0000.0001) %MON dynstat_wvel_min             =  -7.7147680706621E-05
(PID.TID 0000.0001) %MON dynstat_wvel_mean            =  -7.7381151807901E-22
(PID.TID 0000.0001) %MON dynstat_wvel_sd              =   1.9994929809096E-05
(PID.TID 0000.0001) %MON dynstat_wvel_del2            =   2.0264807477062E-07
(PID.TID 0000.0001) %MON dynstat_theta_max            =   2.0001539516745E+01
(PID.TID 0000.0001) %MON dynstat_theta_min            =   6.0002813262945E+00
(PID.TID 0000.0001) %MON dynstat_theta_mean           =   1.1000000130121E+01
(PID.TID 0000.0001) %MON dynstat_theta_sd             =   5.3837215163482E+00
(PID.TID 0000.0001) %MON dynstat_theta_del2           =   1.2355985035101E-05
(PID.TID 0000.0001) %MON dynstat_salt_max             =   1.0000000000000E+01
(PID.TID 0000.0001) %MON dynstat_salt_min             =   1.0000000000000E+01
(PID.TID 0000.0001) %MON dynstat_salt_mean            =   1.0000000000000E+01
(PID.TID 0000.0001) %MON dynstat_salt_sd              =   0.0000000000000E+00
(PID.TID 0000.0001) %MON dynstat_salt_del2            =   0.0000000000000E+00
(PID.TID 0000.0001) %MON extforcing_qnet_max          =   0.0000000000000E+00
(PID.TID 0000.0001) %MON extforcing_qnet_min          =   0.0000000000000E+00
(PID.TID 0000.0001) %MON extforcing_qnet_mean         =   0.0000000000000E+00
(PID.TID 0000.0001) %MON extforcing_qnet_sd           =   0.0000000000000E+00
(PID.TID 0000.0001) %MON extforcing_qsw_max           =   0.0000000000000E+00
(PID.TID 0000.0001) %MON extforcing_qsw_min           =   0.0000000000000E+00
(PID.TID 0000.0001) %MON extforcing_qsw_mean          =   0.0000000000000E+00
(PID.TID 0000.0001) %MON extforcing_qsw_sd            =   0.0000000000000E+00
(PID.TID 0000.0001) %MON extforcing_empmr_max         =   0.0000000000000E+00
(PID.TID 0000.0001) %MON extforcing_empmr_min         =   0.0000000000000E+00
(PID.TID 0000.0001) %MON extforcing_empmr_mean        =   0.0000000000000E+00
(PID.TID 0000.0001) %MON extforcing_empmr_sd          =   0.0000000000000E+00
(PID.TID 0000.0001) %MON advcfl_uvel_max              =   2.1043431887588E-04
(PID.TID 0000.0001) %MON advcfl_vvel_max              =   2.1043513821898E-04
(PID.TID 0000.0001) %MON advcfl_wvel_max              =   3.7030888498051E-04
(PID.TID 0000.0001) %MON advcfl_W_hf_max              =   1.3878375373957E-04
(PID.TID 0000.0001) %MON pe_b_mean                    =  -1.0073166087201E-04
(PID.TID 0000.0001) %MON ke_max                       =   1.5675565174721E-04
(PID.TID 0000.0001) %MON ke_mean                      =   4.5370139879365E-05
(PID.TID 0000.0001) %MON ke_vol                       =   5.6340000000000E+16
(PID.TID 0000.0001) %MON vort_r_min                   =  -2.9325534646162E-08
(PID.TID 0000.0001) %MON vort_r_max                   =   2.9334651831748E-08
(PID.TID 0000.0001) %MON vort_a_mean                  =   9.9999997473788E-05
(PID.TID 0000.0001) %MON vort_a_sd                    =   1.3020105255086E-08
(PID.TID 0000.0001) %MON vort_p_mean                  =   1.0398839476244E-04
(PID.TID 0000.0001) %MON vort_p_sd                    =   3.0798698833692E-05
(PID.TID 0000.0001) %MON surfExpan_theta_mean         =  -6.3099636511696E-08
(PID.TID 0000.0001) %MON surfExpan_salt_mean          =   3.2796307916882E-20
(PID.TID 0000.0001) // =======================================================
(PID.TID 0000.0001) // End MONITOR dynamic field statistics
(PID.TID 0000.0001) // =======================================================
 cg2d: Sum(rhs),rhsMax =  -1.09245945623115E-13  2.62338712822616E+00
(PID.TID 0000.0001)                    cg2d_init_res =    1.79906218972098E+00
(PID.TID 0000.0001)                       cg2d_iters =    33
(PID.TID 0000.0001)                         cg2d_res =    9.02674441851317E-14
(PID.TID 0000.0001) // =======================================================
(PID.TID 0000.0001) // Begin MONITOR dynamic field statistics
(PID.TID 0000.0001) // =======================================================
(PID.TID 0000.0001) %MON time_tsnumber                =                     7
(PID.TID 0000.0001) %MON time_secondsf                =   8.4000000000000E+03
(PID.TID 0000.0001) %MON dynstat_eta_max              =   6.6912988384488E-01
(PID.TID 0000.0001) %MON dynstat_eta_min              =  -6.6912882507964E-01
(PID.TID 0000.0001) %MON dynstat_eta_mean             =  -3.0506745288747E-18
(PID.TID 0000.0001) %MON dynstat_eta_sd               =   2.9607534477828E-01
(PID.TID 0000.0001) %MON dynstat_eta_del2             =   2.9850833292301E-03
(PID.TID 0000.0001) %MON dynstat_uvel_max             =   1.5237400233578E-02
(PID.TID 0000.0001) %MON dynstat_uvel_min             =  -1.5237400233578E-02
(PID.TID 0000.0001) %MON dynstat_uvel_mean            =   1.0268423853227E-18
(PID.TID 0000.0001) %MON dynstat_uvel_sd              =   5.8320307736820E-03
(PID.TID 0000.0001) %MON dynstat_uvel_del2            =   6.9867644364624E-05
(PID.TID 0000.0001) %MON dynstat_vvel_max             =   1.5237428515021E-02
(PID.TID 0000.0001) %MON dynstat_vvel_min             =  -1.5237428515021E-02
(PID.TID 0000.0001) %MON dynstat_vvel_mean            =  -5.6653372983321E-19
(PID.TID 0000.0001) %MON dynstat_vvel_sd              =   5.8320035577666E-03
(PID.TID 0000.0001) %MON dynstat_vvel_del2            =   6.9863867538418E-05
(PID.TID 0000.0001) %MON dynstat_wvel_max             =   4.8111248485094E-05
(PID.TID 0000.0001) %MON dynstat_wvel_min             =  -4.8121013526467E-05
(PID.TID 0000.0001) %MON dynstat_wvel_mean            =  -3.8690575903951E-23
(PID.TID 0000.0001) %MON dynstat_wvel_sd              =   1.1742765251034E-05
(PID.TID 0000.0001) %MON dynstat_wvel_del2            =   1.1789178873813E-07
(PID.TID 0000.0001) %MON dynstat_theta_max            =   2.0001640109383E+01
(PID.TID 0000.0001) %MON dynstat_theta_min            =   6.0003386267274E+00
(PID.TID 0000.0001) %MON dynstat_theta_mean           =   1.1000000165623E+01
(PID.TID 0000.0001) %MON dynstat_theta_sd             =   5.3834810740830E+00
(PID.TID 0000.0001) %MON dynstat_theta_del2           =   1.3568832830631E-05
(PID.TID 0000.0001) %MON dynstat_salt_max             =   1.0000000000000E+01
(PID.TID 0000.0001) %MON dynstat_salt_min             =   1.0000000000000E+01
(PID.TID 0000.0001) %MON dynstat_salt_mean            =   1.0000000000000E+01
(PID.TID 0000.0001) %MON dynstat_salt_sd              =   0.0000000000000E+00
(PID.TID 0000.0001) %MON dynstat_salt_del2            =   0.0000000000000E+00
(PID.TID 0000.0001) %MON extforcing_qnet_max          =   0.0000000000000E+00
(PID.TID 0000.0001) %MON extforcing_qnet_min          =   0.0000000000000E+00
(PID.TID 0000.0001) %MON extforcing_qnet_mean         =   0.0000000000000E+00
(PID.TID 0000.0001) %MON extforcing_qnet_sd           =   0.0000000000000E+00
(PID.TID 0000.0001) %MON extforcing_qsw_max           =   0.0000000000000E+00
(PID.TID 0000.0001) %MON extforcing_qsw_min           =   0.0000000000000E+00
(PID.TID 0000.0001) %MON extforcing_qsw_mean          =   0.0000000000000E+00
(PID.TID 0000.0001) %MON extforcing_qsw_sd            =   0.0000000000000E+00
(PID.TID 0000.0001) %MON extforcing_empmr_max         =   0.0000000000000E+00
(PID.TID 0000.0001) %MON extforcing_empmr_min         =   0.0000000000000E+00
(PID.TID 0000.0001) %MON extforcing_empmr_mean        =   0.0000000000000E+00
(PID.TID 0000.0001) %MON extforcing_empmr_sd          =   0.0000000000000E+00
(PID.TID 0000.0001) %MON advcfl_uvel_max              =   1.8284879818378E-04
(PID.TID 0000.0001) %MON advcfl_vvel_max              =   1.8284913756109E-04
(PID.TID 0000.0001) %MON advcfl_wvel_max              =   2.3098087589805E-04
(PID.TID 0000.0001) %MON advcfl_W_hf_max              =   8.6500813739834E-05
(PID.TID 0000.0001) %MON pe_b_mean                    =  -9.3551370983429E-05
(PID.TID 0000.0001) %MON ke_max                       =   1.1748126087395E-04
(PID.TID 0000.0001) %MON ke_mean                      =   3.3300058928954E-05
(PID.TID 0000.0001) %MON ke_vol                       =   5.6340000000000E+16
(PID.TID 0000.0001) %MON vort_r_min                   =  -3.3159100521825E-08
(PID.TID 0000.0001) %MON vort_r_max                   =   3.3170426474321E-08
(PID.TID 0000.0001) %MON vort_a_mean                  =   9.9999997473787E-05
(PID.TID 0000.0001) %MON vort_a_sd                    =   1.4548922341965E-08
(PID.TID 0000.0001) %MON vort_p_mean                  =   1.0398839476244E-04
(PID.TID 0000.0001) %MON vort_p_sd                    =   3.0798699634537E-05
(PID.TID 0000.0001) %MON surfExpan_theta_mean         =  -4.0163898881982E-08
(PID.TID 0000.0001) %MON surfExpan_salt_mean          =  -2.9093498958524E-21
(PID.TID 0000.0001) // =======================================================
(PID.TID 0000.0001) // End MONITOR dynamic field statistics
(PID.TID 0000.0001) // =======================================================
 cg2d: Sum(rhs),rhsMax =  -1.42996725571720E-13  2.70007819013944E+00
(PID.TID 0000.0001)                    cg2d_init_res =    6.25424260939317E-01
(PID.TID 0000.0001)                       cg2d_iters =    33
(PID.TID 0000.0001)                         cg2d_res =    6.40548460578324E-14
(PID.TID 0000.0001) // =======================================================
(PID.TID 0000.0001) // Begin MONITOR dynamic field statistics
(PID.TID 0000.0001) // =======================================================
(PID.TID 0000.0001) %MON time_tsnumber                =                     8
(PID.TID 0000.0001) %MON time_secondsf                =   9.6000000000000E+03
(PID.TID 0000.0001) %MON dynstat_eta_max              =   6.8810297732336E-01
(PID.TID 0000.0001) %MON dynstat_eta_min              =  -6.8811886838808E-01
(PID.TID 0000.0001) %MON dynstat_eta_mean             =   1.9413383365566E-17
(PID.TID 0000.0001) %MON dynstat_eta_sd               =   3.0074307748775E-01
(PID.TID 0000.0001) %MON dynstat_eta_del2             =   3.0027680901127E-03
(PID.TID 0000.0001) %MON dynstat_uvel_max             =   1.2169859402578E-02
(PID.TID 0000.0001) %MON dynstat_uvel_min             =  -1.2169859402578E-02
(PID.TID 0000.0001) %MON dynstat_uvel_mean            =  -9.9586007197244E-19
(PID.TID 0000.0001) %MON dynstat_uvel_sd              =   5.3229929619544E-03
(PID.TID 0000.0001) %MON dynstat_uvel_del2            =   6.6583043199911E-05
(PID.TID 0000.0001) %MON dynstat_vvel_max             =   1.2169721551992E-02
(PID.TID 0000.0001) %MON dynstat_vvel_min             =  -1.2169721551992E-02
(PID.TID 0000.0001) %MON dynstat_vvel_mean            =   0.0000000000000E+00
(PID.TID 0000.0001) %MON dynstat_vvel_sd              =   5.3229841954569E-03
(PID.TID 0000.0001) %MON dynstat_vvel_del2            =   6.6584691570887E-05
(PID.TID 0000.0001) %MON dynstat_wvel_max             =   1.6288550437515E-05
(PID.TID 0000.0001) %MON dynstat_wvel_min             =  -1.6301653978270E-05
(PID.TID 0000.0001) %MON dynstat_wvel_mean            =  -7.5446623012704E-22
(PID.TID 0000.0001) %MON dynstat_wvel_sd              =   4.2493778269418E-06
(PID.TID 0000.0001) %MON dynstat_wvel_del2            =   5.4110283793847E-08
(PID.TID 0000.0001) %MON dynstat_theta_max            =   2.0001435879590E+01
(PID.TID 0000.0001) %MON dynstat_theta_min            =   6.0004162578959E+00
(PID.TID 0000.0001) %MON dynstat_theta_mean           =   1.1000000181464E+01
(PID.TID 0000.0001) %MON dynstat_theta_sd             =   5.3832406261960E+00
(PID.TID 0000.0001) %MON dynstat_theta_del2           =   1.3943605765151E-05
(PID.TID 0000.0001) %MON dynstat_salt_max             =   1.0000000000000E+01
(PID.TID 0000.0001) %MON dynstat_salt_min             =   1.0000000000000E+01
(PID.TID 0000.0001) %MON dynstat_salt_mean            =   1.0000000000000E+01
(PID.TID 0000.0001) %MON dynstat_salt_sd              =   0.0000000000000E+00
(PID.TID 0000.0001) %MON dynstat_salt_del2            =   0.0000000000000E+00
(PID.TID 0000.0001) %MON extforcing_qnet_max          =   0.0000000000000E+00
(PID.TID 0000.0001) %MON extforcing_qnet_min          =   0.0000000000000E+00
(PID.TID 0000.0001) %MON extforcing_qnet_mean         =   0.0000000000000E+00
(PID.TID 0000.0001) %MON extforcing_qnet_sd           =   0.0000000000000E+00
(PID.TID 0000.0001) %MON extforcing_qsw_max           =   0.0000000000000E+00
(PID.TID 0000.0001) %MON extforcing_qsw_min           =   0.0000000000000E+00
(PID.TID 0000.0001) %MON extforcing_qsw_mean          =   0.0000000000000E+00
(PID.TID 0000.0001) %MON extforcing_qsw_sd            =   0.0000000000000E+00
(PID.TID 0000.0001) %MON extforcing_empmr_max         =   0.0000000000000E+00
(PID.TID 0000.0001) %MON extforcing_empmr_min         =   0.0000000000000E+00
(PID.TID 0000.0001) %MON extforcing_empmr_mean        =   0.0000000000000E+00
(PID.TID 0000.0001) %MON extforcing_empmr_sd          =   0.0000000000000E+00
(PID.TID 0000.0001) %MON advcfl_uvel_max              =   1.4603830914170E-04
(PID.TID 0000.0001) %MON advcfl_vvel_max              =   1.4603665493471E-04
(PID.TID 0000.0001) %MON advcfl_wvel_max              =   7.8247942812271E-05
(PID.TID 0000.0001) %MON advcfl_W_hf_max              =   2.9194209651258E-05
(PID.TID 0000.0001) %MON pe_b_mean                    =  -9.2247647678218E-05
(PID.TID 0000.0001) %MON ke_max                       =   9.1535791284302E-05
(PID.TID 0000.0001) %MON ke_mean                      =   2.7740768205239E-05
(PID.TID 0000.0001) %MON ke_vol                       =   5.6340000000000E+16
(PID.TID 0000.0001) %MON vort_r_min                   =  -4.7144007361077E-08
(PID.TID 0000.0001) %MON vort_r_max                   =   4.7147463616789E-08
(PID.TID 0000.0001) %MON vort_a_mean                  =   9.9999997473788E-05
(PID.TID 0000.0001) %MON vort_a_sd                    =   1.5766116232292E-08
(PID.TID 0000.0001) %MON vort_p_mean                  =   1.0398839476244E-04
(PID.TID 0000.0001) %MON vort_p_sd                    =   3.0798700606707E-05
(PID.TID 0000.0001) %MON surfExpan_theta_mean         =  -9.0095259479462E-09
(PID.TID 0000.0001) %MON surfExpan_salt_mean          =  -5.5542134375364E-21
(PID.TID 0000.0001) // =======================================================
(PID.TID 0000.0001) // End MONITOR dynamic field statistics
(PID.TID 0000.0001) // =======================================================
 cg2d: Sum(rhs),rhsMax =  -2.87769807982841E-13  2.63083268650956E+00
(PID.TID 0000.0001)                    cg2d_init_res =    1.03984385523105E+00
(PID.TID 0000.0001)                       cg2d_iters =    33
(PID.TID 0000.0001)                         cg2d_res =    8.46744142465349E-14
(PID.TID 0000.0001) // =======================================================
(PID.TID 0000.0001) // Begin MONITOR dynamic field statistics
(PID.TID 0000.0001) // =======================================================
(PID.TID 0000.0001) %MON time_tsnumber                =                     9
(PID.TID 0000.0001) %MON time_secondsf                =   1.0800000000000E+04
(PID.TID 0000.0001) %MON dynstat_eta_max              =   6.7031672325880E-01
(PID.TID 0000.0001) %MON dynstat_eta_min              =  -6.7034892206322E-01
(PID.TID 0000.0001) %MON dynstat_eta_mean             =   7.1829518452595E-17
(PID.TID 0000.0001) %MON dynstat_eta_sd               =   2.9012569717008E-01
(PID.TID 0000.0001) %MON dynstat_eta_del2             =   2.8735284871721E-03
(PID.TID 0000.0001) %MON dynstat_uvel_max             =   1.0668569496294E-02
(PID.TID 0000.0001) %MON dynstat_uvel_min             =  -1.0668569496294E-02
(PID.TID 0000.0001) %MON dynstat_uvel_mean            =  -1.5756719360986E-18
(PID.TID 0000.0001) %MON dynstat_uvel_sd              =   5.4390881153585E-03
(PID.TID 0000.0001) %MON dynstat_uvel_del2            =   7.3347086966594E-05
(PID.TID 0000.0001) %MON dynstat_vvel_max             =   1.0667465368221E-02
(PID.TID 0000.0001) %MON dynstat_vvel_min             =  -1.0667465368221E-02
(PID.TID 0000.0001) %MON dynstat_vvel_mean            =   0.0000000000000E+00
(PID.TID 0000.0001) %MON dynstat_vvel_sd              =   5.4391228625969E-03
(PID.TID 0000.0001) %MON dynstat_vvel_del2            =   7.3348186224233E-05
(PID.TID 0000.0001) %MON dynstat_wvel_max             =   2.6641515089599E-05
(PID.TID 0000.0001) %MON dynstat_wvel_min             =  -2.6644032930890E-05
(PID.TID 0000.0001) %MON dynstat_wvel_mean            =   6.1209700160547E-23
(PID.TID 0000.0001) %MON dynstat_wvel_sd              =   6.8466771192043E-06
(PID.TID 0000.0001) %MON dynstat_wvel_del2            =   7.3997516009781E-08
(PID.TID 0000.0001) %MON dynstat_theta_max            =   2.0000923410900E+01
(PID.TID 0000.0001) %MON dynstat_theta_min            =   6.0005144453885E+00
(PID.TID 0000.0001) %MON dynstat_theta_mean           =   1.1000000175655E+01
(PID.TID 0000.0001) %MON dynstat_theta_sd             =   5.3830001701783E+00
(PID.TID 0000.0001) %MON dynstat_theta_del2           =   1.3556035669226E-05
(PID.TID 0000.0001) %MON dynstat_salt_max             =   1.0000000000000E+01
(PID.TID 0000.0001) %MON dynstat_salt_min             =   1.0000000000000E+01
(PID.TID 0000.0001) %MON dynstat_salt_mean            =   1.0000000000000E+01
(PID.TID 0000.0001) %MON dynstat_salt_sd              =   0.0000000000000E+00
(PID.TID 0000.0001) %MON dynstat_salt_del2            =   0.0000000000000E+00
(PID.TID 0000.0001) %MON extforcing_qnet_max          =   0.0000000000000E+00
(PID.TID 0000.0001) %MON extforcing_qnet_min          =   0.0000000000000E+00
(PID.TID 0000.0001) %MON extforcing_qnet_mean         =   0.0000000000000E+00
(PID.TID 0000.0001) %MON extforcing_qnet_sd           =   0.0000000000000E+00
(PID.TID 0000.0001) %MON extforcing_qsw_max           =   0.0000000000000E+00
(PID.TID 0000.0001) %MON extforcing_qsw_min           =   0.0000000000000E+00
(PID.TID 0000.0001) %MON extforcing_qsw_mean          =   0.0000000000000E+00
(PID.TID 0000.0001) %MON extforcing_qsw_sd            =   0.0000000000000E+00
(PID.TID 0000.0001) %MON extforcing_empmr_max         =   0.0000000000000E+00
(PID.TID 0000.0001) %MON extforcing_empmr_min         =   0.0000000000000E+00
(PID.TID 0000.0001) %MON extforcing_empmr_mean        =   0.0000000000000E+00
(PID.TID 0000.0001) %MON extforcing_empmr_sd          =   0.0000000000000E+00
(PID.TID 0000.0001) %MON advcfl_uvel_max              =   1.2802283072140E-04
(PID.TID 0000.0001) %MON advcfl_vvel_max              =   1.2800958118486E-04
(PID.TID 0000.0001) %MON advcfl_wvel_max              =   1.2789136414279E-04
(PID.TID 0000.0001) %MON advcfl_W_hf_max              =   4.8311996155075E-05
(PID.TID 0000.0001) %MON pe_b_mean                    =  -9.7262340029696E-05
(PID.TID 0000.0001) %MON ke_max                       =   8.4812705235353E-05
(PID.TID 0000.0001) %MON ke_mean                      =   2.8964256080802E-05
(PID.TID 0000.0001) %MON ke_vol                       =   5.6340000000000E+16
(PID.TID 0000.0001) %MON vort_r_min                   =  -6.4235675114660E-08
(PID.TID 0000.0001) %MON vort_r_max                   =   6.4236568619991E-08
(PID.TID 0000.0001) %MON vort_a_mean                  =   9.9999997473788E-05
(PID.TID 0000.0001) %MON vort_a_sd                    =   1.6413202529700E-08
(PID.TID 0000.0001) %MON vort_p_mean                  =   1.0398839476244E-04
(PID.TID 0000.0001) %MON vort_p_sd                    =   3.0798701419647E-05
(PID.TID 0000.0001) %MON surfExpan_theta_mean         =   2.0131069865085E-08
(PID.TID 0000.0001) %MON surfExpan_salt_mean          =  -2.1489516276183E-21
(PID.TID 0000.0001) // =======================================================
(PID.TID 0000.0001) // End MONITOR dynamic field statistics
(PID.TID 0000.0001) // =======================================================
 cg2d: Sum(rhs),rhsMax =  -3.35731442646647E-13  2.44294056501479E+00
(PID.TID 0000.0001)                    cg2d_init_res =    2.06582203749367E+00
(PID.TID 0000.0001)                       cg2d_iters =    34
(PID.TID 0000.0001)                         cg2d_res =    4.89586136704060E-14
(PID.TID 0000.0001) // =======================================================
(PID.TID 0000.0001) // Begin MONITOR dynamic field statistics
(PID.TID 0000.0001) // =======================================================
(PID.TID 0000.0001) %MON time_tsnumber                =                    10
(PID.TID 0000.0001) %MON time_secondsf                =   1.2000000000000E+04
(PID.TID 0000.0001) %MON dynstat_eta_max              =   6.2288704098582E-01
(PID.TID 0000.0001) %MON dynstat_eta_min              =  -6.2292917622883E-01
(PID.TID 0000.0001) %MON dynstat_eta_mean             =   1.3312034307817E-16
(PID.TID 0000.0001) %MON dynstat_eta_sd               =   2.6783321080786E-01
(PID.TID 0000.0001) %MON dynstat_eta_del2             =   2.6363526387215E-03
(PID.TID 0000.0001) %MON dynstat_uvel_max             =   1.2529584995372E-02
(PID.TID 0000.0001) %MON dynstat_uvel_min             =  -1.2529584995372E-02
(PID.TID 0000.0001) %MON dynstat_uvel_mean            =  -2.8326686491661E-19
(PID.TID 0000.0001) %MON dynstat_uvel_sd              =   5.8367587055080E-03
(PID.TID 0000.0001) %MON dynstat_uvel_del2            =   7.9651479959907E-05
(PID.TID 0000.0001) %MON dynstat_vvel_max             =   1.2529012886323E-02
(PID.TID 0000.0001) %MON dynstat_vvel_min             =  -1.2529012886323E-02
(PID.TID 0000.0001) %MON dynstat_vvel_mean            =   1.4163343245830E-19
(PID.TID 0000.0001) %MON dynstat_vvel_sd              =   5.8368517597747E-03
(PID.TID 0000.0001) %MON dynstat_vvel_del2            =   7.9652750981386E-05
(PID.TID 0000.0001) %MON dynstat_wvel_max             =   3.9516564789289E-05
(PID.TID 0000.0001) %MON dynstat_wvel_min             =  -3.9524845147357E-05
(PID.TID 0000.0001) %MON dynstat_wvel_mean            =  -1.5476230361580E-22
(PID.TID 0000.0001) %MON dynstat_wvel_sd              =   1.2580147082578E-05
(PID.TID 0000.0001) %MON dynstat_wvel_del2            =   1.2987181542220E-07
(PID.TID 0000.0001) %MON dynstat_theta_max            =   2.0000144338470E+01
(PID.TID 0000.0001) %MON dynstat_theta_min            =   6.0006304104346E+00
(PID.TID 0000.0001) %MON dynstat_theta_mean           =   1.1000000153085E+01
(PID.TID 0000.0001) %MON dynstat_theta_sd             =   5.3827597134566E+00
(PID.TID 0000.0001) %MON dynstat_theta_del2           =   1.2573166841786E-05
(PID.TID 0000.0001) %MON dynstat_salt_max             =   1.0000000000000E+01
(PID.TID 0000.0001) %MON dynstat_salt_min             =   1.0000000000000E+01
(PID.TID 0000.0001) %MON dynstat_salt_mean            =   1.0000000000000E+01
(PID.TID 0000.0001) %MON dynstat_salt_sd              =   0.0000000000000E+00
(PID.TID 0000.0001) %MON dynstat_salt_del2            =   0.0000000000000E+00
(PID.TID 0000.0001) %MON extforcing_qnet_max          =   0.0000000000000E+00
(PID.TID 0000.0001) %MON extforcing_qnet_min          =   0.0000000000000E+00
(PID.TID 0000.0001) %MON extforcing_qnet_mean         =   0.0000000000000E+00
(PID.TID 0000.0001) %MON extforcing_qnet_sd           =   0.0000000000000E+00
(PID.TID 0000.0001) %MON extforcing_qsw_max           =   0.0000000000000E+00
(PID.TID 0000.0001) %MON extforcing_qsw_min           =   0.0000000000000E+00
(PID.TID 0000.0001) %MON extforcing_qsw_mean          =   0.0000000000000E+00
(PID.TID 0000.0001) %MON extforcing_qsw_sd            =   0.0000000000000E+00
(PID.TID 0000.0001) %MON extforcing_empmr_max         =   0.0000000000000E+00
(PID.TID 0000.0001) %MON extforcing_empmr_min         =   0.0000000000000E+00
(PID.TID 0000.0001) %MON extforcing_empmr_mean        =   0.0000000000000E+00
(PID.TID 0000.0001) %MON extforcing_empmr_sd          =   0.0000000000000E+00
(PID.TID 0000.0001) %MON advcfl_uvel_max              =   1.5035501614618E-04
(PID.TID 0000.0001) %MON advcfl_vvel_max              =   1.5034815083776E-04
(PID.TID 0000.0001) %MON advcfl_wvel_max              =   1.8971926571849E-04
(PID.TID 0000.0001) %MON advcfl_W_hf_max              =   7.1362264121740E-05
(PID.TID 0000.0001) %MON pe_b_mean                    =  -1.0511076882036E-04
(PID.TID 0000.0001) %MON ke_max                       =   9.1516234917100E-05
(PID.TID 0000.0001) %MON ke_mean                      =   3.3354759854094E-05
(PID.TID 0000.0001) %MON ke_vol                       =   5.6340000000000E+16
(PID.TID 0000.0001) %MON vort_r_min                   =  -7.4265528218554E-08
(PID.TID 0000.0001) %MON vort_r_max                   =   7.4263260264044E-08
(PID.TID 0000.0001) %MON vort_a_mean                  =   9.9999997473788E-05
(PID.TID 0000.0001) %MON vort_a_sd                    =   1.6335104914935E-08
(PID.TID 0000.0001) %MON vort_p_mean                  =   1.0398839476244E-04
(PID.TID 0000.0001) %MON vort_p_sd                    =   3.0798701740273E-05
(PID.TID 0000.0001) %MON surfExpan_theta_mean         =   3.9498917685049E-08
(PID.TID 0000.0001) %MON surfExpan_salt_mean          =   1.3224317708420E-21
(PID.TID 0000.0001) // =======================================================
(PID.TID 0000.0001) // End MONITOR dynamic field statistics
(PID.TID 0000.0001) // =======================================================
 cg2d: Sum(rhs),rhsMax =  -4.65405491922866E-13  2.17839407138989E+00
(PID.TID 0000.0001)                    cg2d_init_res =    2.98921015825819E+00
(PID.TID 0000.0001)                       cg2d_iters =    34
(PID.TID 0000.0001)                         cg2d_res =    6.69972089559745E-14
(PID.TID 0000.0001) // =======================================================
(PID.TID 0000.0001) // Begin MONITOR dynamic field statistics
(PID.TID 0000.0001) // =======================================================
(PID.TID 0000.0001) %MON time_tsnumber                =                    11
(PID.TID 0000.0001) %MON time_secondsf                =   1.3200000000000E+04
(PID.TID 0000.0001) %MON dynstat_eta_max              =   5.5643935949969E-01
(PID.TID 0000.0001) %MON dynstat_eta_min              =  -5.5648224875072E-01
(PID.TID 0000.0001) %MON dynstat_eta_mean             =   9.0549566697962E-17
(PID.TID 0000.0001) %MON dynstat_eta_sd               =   2.3866740212561E-01
(PID.TID 0000.0001) %MON dynstat_eta_del2             =   2.3410347753203E-03
(PID.TID 0000.0001) %MON dynstat_uvel_max             =   1.3881631727797E-02
(PID.TID 0000.0001) %MON dynstat_uvel_min             =  -1.3881631727797E-02
(PID.TID 0000.0001) %MON dynstat_uvel_mean            =  -1.6287844732705E-18
(PID.TID 0000.0001) %MON dynstat_uvel_sd              =   6.0836031532834E-03
(PID.TID 0000.0001) %MON dynstat_uvel_del2            =   8.1609530233919E-05
(PID.TID 0000.0001) %MON dynstat_vvel_max             =   1.3882251333939E-02
(PID.TID 0000.0001) %MON dynstat_vvel_min             =  -1.3882251333939E-02
(PID.TID 0000.0001) %MON dynstat_vvel_mean            =   1.1330674596664E-18
(PID.TID 0000.0001) %MON dynstat_vvel_sd              =   6.0837555438927E-03
(PID.TID 0000.0001) %MON dynstat_vvel_del2            =   8.1612174987969E-05
(PID.TID 0000.0001) %MON dynstat_wvel_max             =   5.5372538013433E-05
(PID.TID 0000.0001) %MON dynstat_wvel_min             =  -5.5373166345804E-05
(PID.TID 0000.0001) %MON dynstat_wvel_mean            =   1.0059549735027E-21
(PID.TID 0000.0001) %MON dynstat_wvel_sd              =   1.6220291890538E-05
(PID.TID 0000.0001) %MON dynstat_wvel_del2            =   1.6264015720913E-07
(PID.TID 0000.0001) %MON dynstat_theta_max            =   1.9999175009362E+01
(PID.TID 0000.0001) %MON dynstat_theta_min            =   6.0007590603992E+00
(PID.TID 0000.0001) %MON dynstat_theta_mean           =   1.1000000122414E+01
(PID.TID 0000.0001) %MON dynstat_theta_sd             =   5.3825192689156E+00
(PID.TID 0000.0001) %MON dynstat_theta_del2           =   1.1220748610353E-05
(PID.TID 0000.0001) %MON dynstat_salt_max             =   1.0000000000000E+01
(PID.TID 0000.0001) %MON dynstat_salt_min             =   1.0000000000000E+01
(PID.TID 0000.0001) %MON dynstat_salt_mean            =   1.0000000000000E+01
(PID.TID 0000.0001) %MON dynstat_salt_sd              =   0.0000000000000E+00
(PID.TID 0000.0001) %MON dynstat_salt_del2            =   0.0000000000000E+00
(PID.TID 0000.0001) %MON extforcing_qnet_max          =   0.0000000000000E+00
(PID.TID 0000.0001) %MON extforcing_qnet_min          =   0.0000000000000E+00
(PID.TID 0000.0001) %MON extforcing_qnet_mean         =   0.0000000000000E+00
(PID.TID 0000.0001) %MON extforcing_qnet_sd           =   0.0000000000000E+00
(PID.TID 0000.0001) %MON extforcing_qsw_max           =   0.0000000000000E+00
(PID.TID 0000.0001) %MON extforcing_qsw_min           =   0.0000000000000E+00
(PID.TID 0000.0001) %MON extforcing_qsw_mean          =   0.0000000000000E+00
(PID.TID 0000.0001) %MON extforcing_qsw_sd            =   0.0000000000000E+00
(PID.TID 0000.0001) %MON extforcing_empmr_max         =   0.0000000000000E+00
(PID.TID 0000.0001) %MON extforcing_empmr_min         =   0.0000000000000E+00
(PID.TID 0000.0001) %MON extforcing_empmr_mean        =   0.0000000000000E+00
(PID.TID 0000.0001) %MON extforcing_empmr_sd          =   0.0000000000000E+00
(PID.TID 0000.0001) %MON advcfl_uvel_max              =   1.6657957652541E-04
(PID.TID 0000.0001) %MON advcfl_vvel_max              =   1.6658701179893E-04
(PID.TID 0000.0001) %MON advcfl_wvel_max              =   2.6579121108427E-04
(PID.TID 0000.0001) %MON advcfl_W_hf_max              =   9.9911468609457E-05
(PID.TID 0000.0001) %MON pe_b_mean                    =  -1.1120494602141E-04
(PID.TID 0000.0001) %MON ke_max                       =   9.9972865313504E-05
(PID.TID 0000.0001) %MON ke_mean                      =   3.6235982923871E-05
(PID.TID 0000.0001) %MON ke_vol                       =   5.6340000000000E+16
(PID.TID 0000.0001) %MON vort_r_min                   =  -7.6581333226783E-08
(PID.TID 0000.0001) %MON vort_r_max                   =   7.6576239454480E-08
(PID.TID 0000.0001) %MON vort_a_mean                  =   9.9999997473788E-05
(PID.TID 0000.0001) %MON vort_a_sd                    =   1.5501357206216E-08
(PID.TID 0000.0001) %MON vort_p_mean                  =   1.0398839476244E-04
(PID.TID 0000.0001) %MON vort_p_sd                    =   3.0798701394462E-05
(PID.TID 0000.0001) %MON surfExpan_theta_mean         =   4.6315429865589E-08
(PID.TID 0000.0001) %MON surfExpan_salt_mean          =  -5.8186997917048E-21
(PID.TID 0000.0001) // =======================================================
(PID.TID 0000.0001) // End MONITOR dynamic field statistics
(PID.TID 0000.0001) // =======================================================
 cg2d: Sum(rhs),rhsMax =  -4.98712182661620E-13  1.88562776318568E+00
(PID.TID 0000.0001)                    cg2d_init_res =    3.67884898507231E+00
(PID.TID 0000.0001)                       cg2d_iters =    34
(PID.TID 0000.0001)                         cg2d_res =    8.03812676656387E-14
(PID.TID 0000.0001) // =======================================================
(PID.TID 0000.0001) // Begin MONITOR dynamic field statistics
(PID.TID 0000.0001) // =======================================================
(PID.TID 0000.0001) %MON time_tsnumber                =                    12
(PID.TID 0000.0001) %MON time_secondsf                =   1.4400000000000E+04
(PID.TID 0000.0001) %MON dynstat_eta_max              =   4.8306618631841E-01
(PID.TID 0000.0001) %MON dynstat_eta_min              =  -4.8310171358270E-01
(PID.TID 0000.0001) %MON dynstat_eta_mean             =   1.2688032699638E-16
(PID.TID 0000.0001) %MON dynstat_eta_sd               =   2.0779039294416E-01
(PID.TID 0000.0001) %MON dynstat_eta_del2             =   2.0334657947167E-03
(PID.TID 0000.0001) %MON dynstat_uvel_max             =   1.4073779211531E-02
(PID.TID 0000.0001) %MON dynstat_uvel_min             =  -1.4073779211531E-02
(PID.TID 0000.0001) %MON dynstat_uvel_mean            =   7.0816716229152E-20
(PID.TID 0000.0001) %MON dynstat_uvel_sd              =   5.9445343918057E-03
(PID.TID 0000.0001) %MON dynstat_uvel_del2            =   7.8373692455707E-05
(PID.TID 0000.0001) %MON dynstat_vvel_max             =   1.4074353279184E-02
(PID.TID 0000.0001) %MON dynstat_vvel_min             =  -1.4074353279184E-02
(PID.TID 0000.0001) %MON dynstat_vvel_mean            =  -2.1245014868745E-18
(PID.TID 0000.0001) %MON dynstat_vvel_sd              =   5.9447385574737E-03
(PID.TID 0000.0001) %MON dynstat_vvel_del2            =   7.8377547464623E-05
(PID.TID 0000.0001) %MON dynstat_wvel_max             =   6.1150531585028E-05
(PID.TID 0000.0001) %MON dynstat_wvel_min             =  -6.1144396589675E-05
(PID.TID 0000.0001) %MON dynstat_wvel_mean            =  -1.1607172771185E-21
(PID.TID 0000.0001) %MON dynstat_wvel_sd              =   1.7278009850066E-05
(PID.TID 0000.0001) %MON dynstat_wvel_del2            =   1.7033612299006E-07
(PID.TID 0000.0001) %MON dynstat_theta_max            =   1.9998110873549E+01
(PID.TID 0000.0001) %MON dynstat_theta_min            =   6.0008940298277E+00
(PID.TID 0000.0001) %MON dynstat_theta_mean           =   1.1000000092170E+01
(PID.TID 0000.0001) %MON dynstat_theta_sd             =   5.3822788493664E+00
(PID.TID 0000.0001) %MON dynstat_theta_del2           =   9.7312478471410E-06
(PID.TID 0000.0001) %MON dynstat_salt_max             =   1.0000000000000E+01
(PID.TID 0000.0001) %MON dynstat_salt_min             =   1.0000000000000E+01
(PID.TID 0000.0001) %MON dynstat_salt_mean            =   1.0000000000000E+01
(PID.TID 0000.0001) %MON dynstat_salt_sd              =   0.0000000000000E+00
(PID.TID 0000.0001) %MON dynstat_salt_del2            =   0.0000000000000E+00
(PID.TID 0000.0001) %MON extforcing_qnet_max          =   0.0000000000000E+00
(PID.TID 0000.0001) %MON extforcing_qnet_min          =   0.0000000000000E+00
(PID.TID 0000.0001) %MON extforcing_qnet_mean         =   0.0000000000000E+00
(PID.TID 0000.0001) %MON extforcing_qnet_sd           =   0.0000000000000E+00
(PID.TID 0000.0001) %MON extforcing_qsw_max           =   0.0000000000000E+00
(PID.TID 0000.0001) %MON extforcing_qsw_min           =   0.0000000000000E+00
(PID.TID 0000.0001) %MON extforcing_qsw_mean          =   0.0000000000000E+00
(PID.TID 0000.0001) %MON extforcing_qsw_sd            =   0.0000000000000E+00
(PID.TID 0000.0001) %MON extforcing_empmr_max         =   0.0000000000000E+00
(PID.TID 0000.0001) %MON extforcing_empmr_min         =   0.0000000000000E+00
(PID.TID 0000.0001) %MON extforcing_empmr_mean        =   0.0000000000000E+00
(PID.TID 0000.0001) %MON extforcing_empmr_sd          =   0.0000000000000E+00
(PID.TID 0000.0001) %MON advcfl_uvel_max              =   1.6888534627197E-04
(PID.TID 0000.0001) %MON advcfl_vvel_max              =   1.6889223508363E-04
(PID.TID 0000.0001) %MON advcfl_wvel_max              =   2.9352256554971E-04
(PID.TID 0000.0001) %MON advcfl_W_hf_max              =   1.1032403770152E-04
(PID.TID 0000.0001) %MON pe_b_mean                    =  -1.1258096754946E-04
(PID.TID 0000.0001) %MON ke_max                       =   9.9360659980804E-05
(PID.TID 0000.0001) %MON ke_mean                      =   3.4598559600359E-05
(PID.TID 0000.0001) %MON ke_vol                       =   5.6340000000000E+16
(PID.TID 0000.0001) %MON vort_r_min                   =  -7.3497795425015E-08
(PID.TID 0000.0001) %MON vort_r_max                   =   7.3509369514733E-08
(PID.TID 0000.0001) %MON vort_a_mean                  =   9.9999997473788E-05
(PID.TID 0000.0001) %MON vort_a_sd                    =   1.4001640538501E-08
(PID.TID 0000.0001) %MON vort_p_mean                  =   1.0398839476244E-04
(PID.TID 0000.0001) %MON vort_p_sd                    =   3.0798700442380E-05
(PID.TID 0000.0001) %MON surfExpan_theta_mean         =   4.2569304722983E-08
(PID.TID 0000.0001) %MON surfExpan_salt_mean          =  -1.0579454166736E-21
(PID.TID 0000.0001) // =======================================================
(PID.TID 0000.0001) // End MONITOR dynamic field statistics
(PID.TID 0000.0001) // =======================================================
 cg2d: Sum(rhs),rhsMax =  -5.37347943918576E-13  1.61634386836447E+00
(PID.TID 0000.0001)                    cg2d_init_res =    3.94668265610603E+00
(PID.TID 0000.0001)                       cg2d_iters =    34
(PID.TID 0000.0001)                         cg2d_res =    8.58774431423336E-14
(PID.TID 0000.0001) // =======================================================
(PID.TID 0000.0001) // Begin MONITOR dynamic field statistics
(PID.TID 0000.0001) // =======================================================
(PID.TID 0000.0001) %MON time_tsnumber                =                    13
(PID.TID 0000.0001) %MON time_secondsf                =   1.5600000000000E+04
(PID.TID 0000.0001) %MON dynstat_eta_max              =   4.1604640530607E-01
(PID.TID 0000.0001) %MON dynstat_eta_min              =  -4.1607175707669E-01
(PID.TID 0000.0001) %MON dynstat_eta_mean             =   7.0928182796337E-17
(PID.TID 0000.0001) %MON dynstat_eta_sd               =   1.7988931849599E-01
(PID.TID 0000.0001) %MON dynstat_eta_del2             =   1.7563406689896E-03
(PID.TID 0000.0001) %MON dynstat_uvel_max             =   1.3168362423975E-02
(PID.TID 0000.0001) %MON dynstat_uvel_min             =  -1.3168362423975E-02
(PID.TID 0000.0001) %MON dynstat_uvel_mean            =   4.2490029737491E-19
(PID.TID 0000.0001) %MON dynstat_uvel_sd              =   5.3830690910608E-03
(PID.TID 0000.0001) %MON dynstat_uvel_del2            =   6.9038134169119E-05
(PID.TID 0000.0001) %MON dynstat_vvel_max             =   1.3168854300662E-02
(PID.TID 0000.0001) %MON dynstat_vvel_min             =  -1.3168854300662E-02
(PID.TID 0000.0001) %MON dynstat_vvel_mean            =  -1.6996011894996E-18
(PID.TID 0000.0001) %MON dynstat_vvel_sd              =   5.3833119738918E-03
(PID.TID 0000.0001) %MON dynstat_vvel_del2            =   6.9042573744151E-05
(PID.TID 0000.0001) %MON dynstat_wvel_max             =   5.7619254079237E-05
(PID.TID 0000.0001) %MON dynstat_wvel_min             =  -5.7609595671775E-05
(PID.TID 0000.0001) %MON dynstat_wvel_mean            =   1.1994078530225E-21
(PID.TID 0000.0001) %MON dynstat_wvel_sd              =   1.5894025551765E-05
(PID.TID 0000.0001) %MON dynstat_wvel_del2            =   1.5537400268353E-07
(PID.TID 0000.0001) %MON dynstat_theta_max            =   1.9997053208315E+01
(PID.TID 0000.0001) %MON dynstat_theta_min            =   6.0010285633530E+00
(PID.TID 0000.0001) %MON dynstat_theta_mean           =   1.1000000067977E+01
(PID.TID 0000.0001) %MON dynstat_theta_sd             =   5.3820384635680E+00
(PID.TID 0000.0001) %MON dynstat_theta_del2           =   8.3142222470531E-06
(PID.TID 0000.0001) %MON dynstat_salt_max             =   1.0000000000000E+01
(PID.TID 0000.0001) %MON dynstat_salt_min             =   1.0000000000000E+01
(PID.TID 0000.0001) %MON dynstat_salt_mean            =   1.0000000000000E+01
(PID.TID 0000.0001) %MON dynstat_salt_sd              =   0.0000000000000E+00
(PID.TID 0000.0001) %MON dynstat_salt_del2            =   0.0000000000000E+00
(PID.TID 0000.0001) %MON extforcing_qnet_max          =   0.0000000000000E+00
(PID.TID 0000.0001) %MON extforcing_qnet_min          =   0.0000000000000E+00
(PID.TID 0000.0001) %MON extforcing_qnet_mean         =   0.0000000000000E+00
(PID.TID 0000.0001) %MON extforcing_qnet_sd           =   0.0000000000000E+00
(PID.TID 0000.0001) %MON extforcing_qsw_max           =   0.0000000000000E+00
(PID.TID 0000.0001) %MON extforcing_qsw_min           =   0.0000000000000E+00
(PID.TID 0000.0001) %MON extforcing_qsw_mean          =   0.0000000000000E+00
(PID.TID 0000.0001) %MON extforcing_qsw_sd            =   0.0000000000000E+00
(PID.TID 0000.0001) %MON extforcing_empmr_max         =   0.0000000000000E+00
(PID.TID 0000.0001) %MON extforcing_empmr_min         =   0.0000000000000E+00
(PID.TID 0000.0001) %MON extforcing_empmr_mean        =   0.0000000000000E+00
(PID.TID 0000.0001) %MON extforcing_empmr_sd          =   0.0000000000000E+00
(PID.TID 0000.0001) %MON advcfl_uvel_max              =   1.5802034509577E-04
(PID.TID 0000.0001) %MON advcfl_vvel_max              =   1.5802624761587E-04
(PID.TID 0000.0001) %MON advcfl_wvel_max              =   2.7657243271682E-04
(PID.TID 0000.0001) %MON advcfl_W_hf_max              =   1.0396559895311E-04
(PID.TID 0000.0001) %MON pe_b_mean                    =  -1.0917606168735E-04
(PID.TID 0000.0001) %MON ke_max                       =   8.6609110490837E-05
(PID.TID 0000.0001) %MON ke_mean                      =   2.8371801850457E-05
(PID.TID 0000.0001) %MON ke_vol                       =   5.6340000000000E+16
(PID.TID 0000.0001) %MON vort_r_min                   =  -6.3568067890774E-08
(PID.TID 0000.0001) %MON vort_r_max                   =   6.3580042850342E-08
(PID.TID 0000.0001) %MON vort_a_mean                  =   9.9999997473788E-05
(PID.TID 0000.0001) %MON vort_a_sd                    =   1.2034563320198E-08
(PID.TID 0000.0001) %MON vort_p_mean                  =   1.0398839476245E-04
(PID.TID 0000.0001) %MON vort_p_sd                    =   3.0798699146331E-05
(PID.TID 0000.0001) %MON surfExpan_theta_mean         =   3.2842141392248E-08
(PID.TID 0000.0001) %MON surfExpan_salt_mean          =   3.1738362500208E-21
(PID.TID 0000.0001) // =======================================================
(PID.TID 0000.0001) // End MONITOR dynamic field statistics
(PID.TID 0000.0001) // =======================================================
 cg2d: Sum(rhs),rhsMax =  -6.31494856406789E-13  1.40707692848000E+00
(PID.TID 0000.0001)                    cg2d_init_res =    3.58162640609948E+00
(PID.TID 0000.0001)                       cg2d_iters =    34
(PID.TID 0000.0001)                         cg2d_res =    7.96698806679828E-14
(PID.TID 0000.0001) // =======================================================
(PID.TID 0000.0001) // Begin MONITOR dynamic field statistics
(PID.TID 0000.0001) // =======================================================
(PID.TID 0000.0001) %MON time_tsnumber                =                    14
(PID.TID 0000.0001) %MON time_secondsf                =   1.6800000000000E+04
(PID.TID 0000.0001) %MON dynstat_eta_max              =   3.6345630688464E-01
(PID.TID 0000.0001) %MON dynstat_eta_min              =  -3.6347090556144E-01
(PID.TID 0000.0001) %MON dynstat_eta_mean             =   8.9856231577764E-17
(PID.TID 0000.0001) %MON dynstat_eta_sd               =   1.5844282567057E-01
(PID.TID 0000.0001) %MON dynstat_eta_del2             =   1.5453100333176E-03
(PID.TID 0000.0001) %MON dynstat_uvel_max             =   1.1510046210875E-02
(PID.TID 0000.0001) %MON dynstat_uvel_min             =  -1.1510046210875E-02
(PID.TID 0000.0001) %MON dynstat_uvel_mean            =   1.2747008921247E-18
(PID.TID 0000.0001) %MON dynstat_uvel_sd              =   4.5112559293411E-03
(PID.TID 0000.0001) %MON dynstat_uvel_del2            =   5.4984835528336E-05
(PID.TID 0000.0001) %MON dynstat_vvel_max             =   1.1510480141579E-02
(PID.TID 0000.0001) %MON dynstat_vvel_min             =  -1.1510480141579E-02
(PID.TID 0000.0001) %MON dynstat_vvel_mean            =   3.5408358114576E-19
(PID.TID 0000.0001) %MON dynstat_vvel_sd              =   4.5115184884183E-03
(PID.TID 0000.0001) %MON dynstat_vvel_del2            =   5.4989842988992E-05
(PID.TID 0000.0001) %MON dynstat_wvel_max             =   4.6329382614121E-05
(PID.TID 0000.0001) %MON dynstat_wvel_min             =  -4.6319779524485E-05
(PID.TID 0000.0001) %MON dynstat_wvel_mean            =   3.0952460723160E-22
(PID.TID 0000.0001) %MON dynstat_wvel_sd              =   1.2570130222627E-05
(PID.TID 0000.0001) %MON dynstat_wvel_del2            =   1.2262204577287E-07
(PID.TID 0000.0001) %MON dynstat_theta_max            =   1.9996098158567E+01
(PID.TID 0000.0001) %MON dynstat_theta_min            =   6.0011562522898E+00
(PID.TID 0000.0001) %MON dynstat_theta_mean           =   1.1000000051774E+01
(PID.TID 0000.0001) %MON dynstat_theta_sd             =   5.3817981150504E+00
(PID.TID 0000.0001) %MON dynstat_theta_del2           =   7.1601662123673E-06
(PID.TID 0000.0001) %MON dynstat_salt_max             =   1.0000000000000E+01
(PID.TID 0000.0001) %MON dynstat_salt_min             =   1.0000000000000E+01
(PID.TID 0000.0001) %MON dynstat_salt_mean            =   1.0000000000000E+01
(PID.TID 0000.0001) %MON dynstat_salt_sd              =   0.0000000000000E+00
(PID.TID 0000.0001) %MON dynstat_salt_del2            =   0.0000000000000E+00
(PID.TID 0000.0001) %MON extforcing_qnet_max          =   0.0000000000000E+00
(PID.TID 0000.0001) %MON extforcing_qnet_min          =   0.0000000000000E+00
(PID.TID 0000.0001) %MON extforcing_qnet_mean         =   0.0000000000000E+00
(PID.TID 0000.0001) %MON extforcing_qnet_sd           =   0.0000000000000E+00
(PID.TID 0000.0001) %MON extforcing_qsw_max           =   0.0000000000000E+00
(PID.TID 0000.0001) %MON extforcing_qsw_min           =   0.0000000000000E+00
(PID.TID 0000.0001) %MON extforcing_qsw_mean          =   0.0000000000000E+00
(PID.TID 0000.0001) %MON extforcing_qsw_sd            =   0.0000000000000E+00
(PID.TID 0000.0001) %MON extforcing_empmr_max         =   0.0000000000000E+00
(PID.TID 0000.0001) %MON extforcing_empmr_min         =   0.0000000000000E+00
(PID.TID 0000.0001) %MON extforcing_empmr_mean        =   0.0000000000000E+00
(PID.TID 0000.0001) %MON extforcing_empmr_sd          =   0.0000000000000E+00
(PID.TID 0000.0001) %MON advcfl_uvel_max              =   1.3812055104128E-04
(PID.TID 0000.0001) %MON advcfl_vvel_max              =   1.3812575820960E-04
(PID.TID 0000.0001) %MON advcfl_wvel_max              =   2.2238104711031E-04
(PID.TID 0000.0001) %MON advcfl_W_hf_max              =   8.3639084906586E-05
(PID.TID 0000.0001) %MON pe_b_mean                    =  -1.0334159650620E-04
(PID.TID 0000.0001) %MON ke_max                       =   6.6740470697957E-05
(PID.TID 0000.0001) %MON ke_mean                      =   1.9926343973070E-05
(PID.TID 0000.0001) %MON ke_vol                       =   5.6340000000000E+16
(PID.TID 0000.0001) %MON vort_r_min                   =  -4.6929404819843E-08
(PID.TID 0000.0001) %MON vort_r_max                   =   4.6941178896192E-08
(PID.TID 0000.0001) %MON vort_a_mean                  =   9.9999997473787E-05
(PID.TID 0000.0001) %MON vort_a_sd                    =   9.9059908359965E-09
(PID.TID 0000.0001) %MON vort_p_mean                  =   1.0398839476244E-04
(PID.TID 0000.0001) %MON vort_p_sd                    =   3.0798697860751E-05
(PID.TID 0000.0001) %MON surfExpan_theta_mean         =   2.1672924633489E-08
(PID.TID 0000.0001) %MON surfExpan_salt_mean          =  -1.9043017500125E-20
(PID.TID 0000.0001) // =======================================================
(PID.TID 0000.0001) // End MONITOR dynamic field statistics
(PID.TID 0000.0001) // =======================================================
 cg2d: Sum(rhs),rhsMax =  -6.69686528453894E-13  1.27480762596365E+00
(PID.TID 0000.0001)                    cg2d_init_res =    2.52511168983004E+00
(PID.TID 0000.0001)                       cg2d_iters =    34
(PID.TID 0000.0001)                         cg2d_res =    6.05361024410142E-14
(PID.TID 0000.0001) // =======================================================
(PID.TID 0000.0001) // Begin MONITOR dynamic field statistics
(PID.TID 0000.0001) // =======================================================
(PID.TID 0000.0001) %MON time_tsnumber                =                    15
(PID.TID 0000.0001) %MON time_secondsf                =   1.8000000000000E+04
(PID.TID 0000.0001) %MON dynstat_eta_max              =   3.3005897804795E-01
(PID.TID 0000.0001) %MON dynstat_eta_min              =  -3.3006525364786E-01
(PID.TID 0000.0001) %MON dynstat_eta_mean             =   6.7946841779482E-17
(PID.TID 0000.0001) %MON dynstat_eta_sd               =   1.4528539641448E-01
(PID.TID 0000.0001) %MON dynstat_eta_del2             =   1.4162759064544E-03
(PID.TID 0000.0001) %MON dynstat_uvel_max             =   9.4005206207802E-03
(PID.TID 0000.0001) %MON dynstat_uvel_min             =  -9.4005206207802E-03
(PID.TID 0000.0001) %MON dynstat_uvel_mean            =  -2.1245014868745E-19
(PID.TID 0000.0001) %MON dynstat_uvel_sd              =   3.5660451227090E-03
(PID.TID 0000.0001) %MON dynstat_uvel_del2            =   3.9098043575566E-05
(PID.TID 0000.0001) %MON dynstat_vvel_max             =   9.4008222041670E-03
(PID.TID 0000.0001) %MON dynstat_vvel_min             =  -9.4008222041670E-03
(PID.TID 0000.0001) %MON dynstat_vvel_mean            =   4.9571701360406E-19
(PID.TID 0000.0001) %MON dynstat_vvel_sd              =   3.5662943842999E-03
(PID.TID 0000.0001) %MON dynstat_vvel_del2            =   3.9103798461214E-05
(PID.TID 0000.0001) %MON dynstat_wvel_max             =   2.9821031076481E-05
(PID.TID 0000.0001) %MON dynstat_wvel_min             =  -2.9814101978173E-05
(PID.TID 0000.0001) %MON dynstat_wvel_mean            =  -1.5476230361580E-21
(PID.TID 0000.0001) %MON dynstat_wvel_sd              =   8.0582351604901E-06
(PID.TID 0000.0001) %MON dynstat_wvel_del2            =   7.8913359406249E-08
(PID.TID 0000.0001) %MON dynstat_theta_max            =   1.9995285100711E+01
(PID.TID 0000.0001) %MON dynstat_theta_min            =   6.0012744669325E+00
(PID.TID 0000.0001) %MON dynstat_theta_mean           =   1.1000000042791E+01
(PID.TID 0000.0001) %MON dynstat_theta_sd             =   5.3815578033734E+00
(PID.TID 0000.0001) %MON dynstat_theta_del2           =   6.3787341176001E-06
(PID.TID 0000.0001) %MON dynstat_salt_max             =   1.0000000000000E+01
(PID.TID 0000.0001) %MON dynstat_salt_min             =   1.0000000000000E+01
(PID.TID 0000.0001) %MON dynstat_salt_mean            =   1.0000000000000E+01
(PID.TID 0000.0001) %MON dynstat_salt_sd              =   0.0000000000000E+00
(PID.TID 0000.0001) %MON dynstat_salt_del2            =   0.0000000000000E+00
(PID.TID 0000.0001) %MON extforcing_qnet_max          =   0.0000000000000E+00
(PID.TID 0000.0001) %MON extforcing_qnet_min          =   0.0000000000000E+00
(PID.TID 0000.0001) %MON extforcing_qnet_mean         =   0.0000000000000E+00
(PID.TID 0000.0001) %MON extforcing_qnet_sd           =   0.0000000000000E+00
(PID.TID 0000.0001) %MON extforcing_qsw_max           =   0.0000000000000E+00
(PID.TID 0000.0001) %MON extforcing_qsw_min           =   0.0000000000000E+00
(PID.TID 0000.0001) %MON extforcing_qsw_mean          =   0.0000000000000E+00
(PID.TID 0000.0001) %MON extforcing_qsw_sd            =   0.0000000000000E+00
(PID.TID 0000.0001) %MON extforcing_empmr_max         =   0.0000000000000E+00
(PID.TID 0000.0001) %MON extforcing_empmr_min         =   0.0000000000000E+00
(PID.TID 0000.0001) %MON extforcing_empmr_mean        =   0.0000000000000E+00
(PID.TID 0000.0001) %MON extforcing_empmr_sd          =   0.0000000000000E+00
(PID.TID 0000.0001) %MON advcfl_uvel_max              =   1.1280624459964E-04
(PID.TID 0000.0001) %MON advcfl_vvel_max              =   1.1280986360019E-04
(PID.TID 0000.0001) %MON advcfl_wvel_max              =   1.4314095596594E-04
(PID.TID 0000.0001) %MON advcfl_W_hf_max              =   5.3911850999989E-05
(PID.TID 0000.0001) %MON pe_b_mean                    =  -9.8233531169635E-05
(PID.TID 0000.0001) %MON ke_max                       =   4.6975482155611E-05
(PID.TID 0000.0001) %MON ke_mean                      =   1.2451206613864E-05
(PID.TID 0000.0001) %MON ke_vol                       =   5.6340000000000E+16
(PID.TID 0000.0001) %MON vort_r_min                   =  -3.0522935510926E-08
(PID.TID 0000.0001) %MON vort_r_max                   =   3.0515513386241E-08
(PID.TID 0000.0001) %MON vort_a_mean                  =   9.9999997473788E-05
(PID.TID 0000.0001) %MON vort_a_sd                    =   8.0492870812869E-09
(PID.TID 0000.0001) %MON vort_p_mean                  =   1.0398839476244E-04
(PID.TID 0000.0001) %MON vort_p_sd                    =   3.0798696901655E-05
(PID.TID 0000.0001) %MON surfExpan_theta_mean         =   1.1801718354642E-08
(PID.TID 0000.0001) %MON surfExpan_salt_mean          =   2.1158908333472E-21
(PID.TID 0000.0001) // =======================================================
(PID.TID 0000.0001) // End MONITOR dynamic field statistics
(PID.TID 0000.0001) // =======================================================
 cg2d: Sum(rhs),rhsMax =  -5.50670620214078E-13  1.22711800465507E+00
(PID.TID 0000.0001)                    cg2d_init_res =    1.09932814701564E+00
(PID.TID 0000.0001)                       cg2d_iters =    34
(PID.TID 0000.0001)                         cg2d_res =    3.49718651113086E-14
(PID.TID 0000.0001) // =======================================================
(PID.TID 0000.0001) // Begin MONITOR dynamic field statistics
(PID.TID 0000.0001) // =======================================================
(PID.TID 0000.0001) %MON time_tsnumber                =                    16
(PID.TID 0000.0001) %MON time_secondsf                =   1.9200000000000E+04
(PID.TID 0000.0001) %MON dynstat_eta_max              =   3.1782752289123E-01
(PID.TID 0000.0001) %MON dynstat_eta_min              =  -3.1782871378653E-01
(PID.TID 0000.0001) %MON dynstat_eta_mean             =   2.9952077192588E-17
(PID.TID 0000.0001) %MON dynstat_eta_sd               =   1.4071042557843E-01
(PID.TID 0000.0001) %MON dynstat_eta_del2             =   1.3730772018543E-03
(PID.TID 0000.0001) %MON dynstat_uvel_max             =   7.2052882587921E-03
(PID.TID 0000.0001) %MON dynstat_uvel_min             =  -7.2052882587921E-03
(PID.TID 0000.0001) %MON dynstat_uvel_mean            =  -5.6653372983321E-19
(PID.TID 0000.0001) %MON dynstat_uvel_sd              =   2.9052770591319E-03
(PID.TID 0000.0001) %MON dynstat_uvel_del2            =   2.7575659231455E-05
(PID.TID 0000.0001) %MON dynstat_vvel_max             =   7.2054885210009E-03
(PID.TID 0000.0001) %MON dynstat_vvel_min             =  -7.2054885210008E-03
(PID.TID 0000.0001) %MON dynstat_vvel_mean            =   5.6653372983321E-19
(PID.TID 0000.0001) %MON dynstat_vvel_sd              =   2.9054508961505E-03
(PID.TID 0000.0001) %MON dynstat_vvel_del2            =   2.7578947391096E-05
(PID.TID 0000.0001) %MON dynstat_wvel_max             =   1.1486769948270E-05
(PID.TID 0000.0001) %MON dynstat_wvel_min             =  -1.1483450080189E-05
(PID.TID 0000.0001) %MON dynstat_wvel_mean            =   2.3988157060449E-21
(PID.TID 0000.0001) %MON dynstat_wvel_sd              =   3.4491367962948E-06
(PID.TID 0000.0001) %MON dynstat_wvel_del2            =   3.4672176182858E-08
(PID.TID 0000.0001) %MON dynstat_theta_max            =   1.9994640675546E+01
(PID.TID 0000.0001) %MON dynstat_theta_min            =   6.0013814278662E+00
(PID.TID 0000.0001) %MON dynstat_theta_mean           =   1.1000000039264E+01
(PID.TID 0000.0001) %MON dynstat_theta_sd             =   5.3813175264285E+00
(PID.TID 0000.0001) %MON dynstat_theta_del2           =   6.0130865285493E-06
(PID.TID 0000.0001) %MON dynstat_salt_max             =   1.0000000000000E+01
(PID.TID 0000.0001) %MON dynstat_salt_min             =   1.0000000000000E+01
(PID.TID 0000.0001) %MON dynstat_salt_mean            =   1.0000000000000E+01
(PID.TID 0000.0001) %MON dynstat_salt_sd              =   0.0000000000000E+00
(PID.TID 0000.0001) %MON dynstat_salt_del2            =   0.0000000000000E+00
(PID.TID 0000.0001) %MON extforcing_qnet_max          =   0.0000000000000E+00
(PID.TID 0000.0001) %MON extforcing_qnet_min          =   0.0000000000000E+00
(PID.TID 0000.0001) %MON extforcing_qnet_mean         =   0.0000000000000E+00
(PID.TID 0000.0001) %MON extforcing_qnet_sd           =   0.0000000000000E+00
(PID.TID 0000.0001) %MON extforcing_qsw_max           =   0.0000000000000E+00
(PID.TID 0000.0001) %MON extforcing_qsw_min           =   0.0000000000000E+00
(PID.TID 0000.0001) %MON extforcing_qsw_mean          =   0.0000000000000E+00
(PID.TID 0000.0001) %MON extforcing_qsw_sd            =   0.0000000000000E+00
(PID.TID 0000.0001) %MON extforcing_empmr_max         =   0.0000000000000E+00
(PID.TID 0000.0001) %MON extforcing_empmr_min         =   0.0000000000000E+00
(PID.TID 0000.0001) %MON extforcing_empmr_mean        =   0.0000000000000E+00
(PID.TID 0000.0001) %MON extforcing_empmr_sd          =   0.0000000000000E+00
(PID.TID 0000.0001) %MON advcfl_uvel_max              =   8.6463456921254E-05
(PID.TID 0000.0001) %MON advcfl_vvel_max              =   8.6465860067699E-05
(PID.TID 0000.0001) %MON advcfl_wvel_max              =   5.5136498370537E-05
(PID.TID 0000.0001) %MON advcfl_W_hf_max              =   2.0879953812590E-05
(PID.TID 0000.0001) %MON pe_b_mean                    =  -9.6136446832755E-05
(PID.TID 0000.0001) %MON ke_max                       =   3.3502002252856E-05
(PID.TID 0000.0001) %MON ke_mean                      =   8.2643463637409E-06
(PID.TID 0000.0001) %MON ke_vol                       =   5.6340000000000E+16
(PID.TID 0000.0001) %MON vort_r_min                   =  -1.5658637993770E-08
(PID.TID 0000.0001) %MON vort_r_max                   =   1.5661421218247E-08
(PID.TID 0000.0001) %MON vort_a_mean                  =   9.9999997473788E-05
(PID.TID 0000.0001) %MON vort_a_sd                    =   7.0067480088427E-09
(PID.TID 0000.0001) %MON vort_p_mean                  =   1.0398839476244E-04
(PID.TID 0000.0001) %MON vort_p_sd                    =   3.0798696450287E-05
(PID.TID 0000.0001) %MON surfExpan_theta_mean         =   3.8607338042559E-09
(PID.TID 0000.0001) %MON surfExpan_salt_mean          =  -3.1738362500208E-21
(PID.TID 0000.0001) // =======================================================
(PID.TID 0000.0001) // End MONITOR dynamic field statistics
(PID.TID 0000.0001) // =======================================================
 cg2d: Sum(rhs),rhsMax =  -3.44613226843649E-13  1.25855760279869E+00
(PID.TID 0000.0001)                    cg2d_init_res =    9.48252903690956E-01
(PID.TID 0000.0001)                       cg2d_iters =    33
(PID.TID 0000.0001)                         cg2d_res =    8.89731455454272E-14
(PID.TID 0000.0001) // =======================================================
(PID.TID 0000.0001) // Begin MONITOR dynamic field statistics
(PID.TID 0000.0001) // =======================================================
(PID.TID 0000.0001) %MON time_tsnumber                =                    17
(PID.TID 0000.0001) %MON time_secondsf                =   2.0400000000000E+04
(PID.TID 0000.0001) %MON dynstat_eta_max              =   3.2546169542105E-01
(PID.TID 0000.0001) %MON dynstat_eta_min              =  -3.2546046878632E-01
(PID.TID 0000.0001) %MON dynstat_eta_mean             =  -4.2154775308087E-17
(PID.TID 0000.0001) %MON dynstat_eta_sd               =   1.4399102480983E-01
(PID.TID 0000.0001) %MON dynstat_eta_del2             =   1.4080319875962E-03
(PID.TID 0000.0001) %MON dynstat_uvel_max             =   5.8473219954413E-03
(PID.TID 0000.0001) %MON dynstat_uvel_min             =  -5.8473219954413E-03
(PID.TID 0000.0001) %MON dynstat_uvel_mean            =   2.8326686491661E-19
(PID.TID 0000.0001) %MON dynstat_uvel_sd              =   2.8418638576360E-03
(PID.TID 0000.0001) %MON dynstat_uvel_del2            =   2.9039525852518E-05
(PID.TID 0000.0001) %MON dynstat_vvel_max             =   5.8479950299820E-03
(PID.TID 0000.0001) %MON dynstat_vvel_min             =  -5.8479950299820E-03
(PID.TID 0000.0001) %MON dynstat_vvel_mean            =   7.4357552040609E-19
(PID.TID 0000.0001) %MON dynstat_vvel_sd              =   2.8419076861095E-03
(PID.TID 0000.0001) %MON dynstat_vvel_del2            =   2.9034110664150E-05
(PID.TID 0000.0001) %MON dynstat_wvel_max             =   9.5282815085947E-06
(PID.TID 0000.0001) %MON dynstat_wvel_min             =  -9.5329158964579E-06
(PID.TID 0000.0001) %MON dynstat_wvel_mean            =  -5.8035863855926E-22
(PID.TID 0000.0001) %MON dynstat_wvel_sd              =   3.0211800303765E-06
(PID.TID 0000.0001) %MON dynstat_wvel_del2            =   3.2253966623150E-08
(PID.TID 0000.0001) %MON dynstat_theta_max            =   1.9994163815771E+01
(PID.TID 0000.0001) %MON dynstat_theta_min            =   6.0014771947163E+00
(PID.TID 0000.0001) %MON dynstat_theta_mean           =   1.1000000039806E+01
(PID.TID 0000.0001) %MON dynstat_theta_sd             =   5.3810772823143E+00
(PID.TID 0000.0001) %MON dynstat_theta_del2           =   6.0385963597812E-06
(PID.TID 0000.0001) %MON dynstat_salt_max             =   1.0000000000000E+01
(PID.TID 0000.0001) %MON dynstat_salt_min             =   1.0000000000000E+01
(PID.TID 0000.0001) %MON dynstat_salt_mean            =   1.0000000000000E+01
(PID.TID 0000.0001) %MON dynstat_salt_sd              =   0.0000000000000E+00
(PID.TID 0000.0001) %MON dynstat_salt_del2            =   0.0000000000000E+00
(PID.TID 0000.0001) %MON extforcing_qnet_max          =   0.0000000000000E+00
(PID.TID 0000.0001) %MON extforcing_qnet_min          =   0.0000000000000E+00
(PID.TID 0000.0001) %MON extforcing_qnet_mean         =   0.0000000000000E+00
(PID.TID 0000.0001) %MON extforcing_qnet_sd           =   0.0000000000000E+00
(PID.TID 0000.0001) %MON extforcing_qsw_max           =   0.0000000000000E+00
(PID.TID 0000.0001) %MON extforcing_qsw_min           =   0.0000000000000E+00
(PID.TID 0000.0001) %MON extforcing_qsw_mean          =   0.0000000000000E+00
(PID.TID 0000.0001) %MON extforcing_qsw_sd            =   0.0000000000000E+00
(PID.TID 0000.0001) %MON extforcing_empmr_max         =   0.0000000000000E+00
(PID.TID 0000.0001) %MON extforcing_empmr_min         =   0.0000000000000E+00
(PID.TID 0000.0001) %MON extforcing_empmr_mean        =   0.0000000000000E+00
(PID.TID 0000.0001) %MON extforcing_empmr_sd          =   0.0000000000000E+00
(PID.TID 0000.0001) %MON advcfl_uvel_max              =   7.0167862172707E-05
(PID.TID 0000.0001) %MON advcfl_vvel_max              =   7.0175938586990E-05
(PID.TID 0000.0001) %MON advcfl_wvel_max              =   4.5757998476386E-05
(PID.TID 0000.0001) %MON advcfl_W_hf_max              =   1.6913991726316E-05
(PID.TID 0000.0001) %MON pe_b_mean                    =  -9.7568916812863E-05
(PID.TID 0000.0001) %MON ke_max                       =   2.9459210385359E-05
(PID.TID 0000.0001) %MON ke_mean                      =   7.9071622489430E-06
(PID.TID 0000.0001) %MON ke_vol                       =   5.6340000000000E+16
(PID.TID 0000.0001) %MON vort_r_min                   =  -2.7684534780210E-08
(PID.TID 0000.0001) %MON vort_r_max                   =   2.7692268101451E-08
(PID.TID 0000.0001) %MON vort_a_mean                  =   9.9999997473788E-05
(PID.TID 0000.0001) %MON vort_a_sd                    =   7.1101910909439E-09
(PID.TID 0000.0001) %MON vort_p_mean                  =   1.0398839476244E-04
(PID.TID 0000.0001) %MON vort_p_sd                    =   3.0798696520763E-05
(PID.TID 0000.0001) %MON surfExpan_theta_mean         =  -2.7793923216421E-09
(PID.TID 0000.0001) %MON surfExpan_salt_mean          =   1.6927126666778E-20
(PID.TID 0000.0001) // =======================================================
(PID.TID 0000.0001) // End MONITOR dynamic field statistics
(PID.TID 0000.0001) // =======================================================
 cg2d: Sum(rhs),rhsMax =   1.31450406115619E-13  1.35334807484122E+00
(PID.TID 0000.0001)                    cg2d_init_res =    1.88359345907371E+00
(PID.TID 0000.0001)                       cg2d_iters =    34
(PID.TID 0000.0001)                         cg2d_res =    4.26331421735688E-14
(PID.TID 0000.0001) // =======================================================
(PID.TID 0000.0001) // Begin MONITOR dynamic field statistics
(PID.TID 0000.0001) // =======================================================
(PID.TID 0000.0001) %MON time_tsnumber                =                    18
(PID.TID 0000.0001) %MON time_secondsf                =   2.1600000000000E+04
(PID.TID 0000.0001) %MON dynstat_eta_max              =   3.4904242455321E-01
(PID.TID 0000.0001) %MON dynstat_eta_min              =  -3.4904036430312E-01
(PID.TID 0000.0001) %MON dynstat_eta_mean             =  -3.3280085769542E-17
(PID.TID 0000.0001) %MON dynstat_eta_sd               =   1.5375188714818E-01
(PID.TID 0000.0001) %MON dynstat_eta_del2             =   1.5064603175056E-03
(PID.TID 0000.0001) %MON dynstat_uvel_max             =   7.3013684139033E-03
(PID.TID 0000.0001) %MON dynstat_uvel_min             =  -7.3013684139034E-03
(PID.TID 0000.0001) %MON dynstat_uvel_mean            =   4.9571701360406E-19
(PID.TID 0000.0001) %MON dynstat_uvel_sd              =   3.2417167156535E-03
(PID.TID 0000.0001) %MON dynstat_uvel_del2            =   3.8267262359199E-05
(PID.TID 0000.0001) %MON dynstat_vvel_max             =   7.3018490494822E-03
(PID.TID 0000.0001) %MON dynstat_vvel_min             =  -7.3018490494822E-03
(PID.TID 0000.0001) %MON dynstat_vvel_mean            =   4.2490029737491E-19
(PID.TID 0000.0001) %MON dynstat_vvel_sd              =   3.2416608583800E-03
(PID.TID 0000.0001) %MON dynstat_vvel_del2            =   3.8260551042568E-05
(PID.TID 0000.0001) %MON dynstat_wvel_max             =   2.1123692424951E-05
(PID.TID 0000.0001) %MON dynstat_wvel_min             =  -2.1123580574086E-05
(PID.TID 0000.0001) %MON dynstat_wvel_mean            =   1.4315513084462E-21
(PID.TID 0000.0001) %MON dynstat_wvel_sd              =   6.3380154556472E-06
(PID.TID 0000.0001) %MON dynstat_wvel_del2            =   6.5212414027484E-08
(PID.TID 0000.0001) %MON dynstat_theta_max            =   1.9993830047456E+01
(PID.TID 0000.0001) %MON dynstat_theta_min            =   6.0015634241469E+00
(PID.TID 0000.0001) %MON dynstat_theta_mean           =   1.1000000043864E+01
(PID.TID 0000.0001) %MON dynstat_theta_sd             =   5.3808370699825E+00
(PID.TID 0000.0001) %MON dynstat_theta_del2           =   6.4007145907870E-06
(PID.TID 0000.0001) %MON dynstat_salt_max             =   1.0000000000000E+01
(PID.TID 0000.0001) %MON dynstat_salt_min             =   1.0000000000000E+01
(PID.TID 0000.0001) %MON dynstat_salt_mean            =   1.0000000000000E+01
(PID.TID 0000.0001) %MON dynstat_salt_sd              =   0.0000000000000E+00
(PID.TID 0000.0001) %MON dynstat_salt_del2            =   0.0000000000000E+00
(PID.TID 0000.0001) %MON extforcing_qnet_max          =   0.0000000000000E+00
(PID.TID 0000.0001) %MON extforcing_qnet_min          =   0.0000000000000E+00
(PID.TID 0000.0001) %MON extforcing_qnet_mean         =   0.0000000000000E+00
(PID.TID 0000.0001) %MON extforcing_qnet_sd           =   0.0000000000000E+00
(PID.TID 0000.0001) %MON extforcing_qsw_max           =   0.0000000000000E+00
(PID.TID 0000.0001) %MON extforcing_qsw_min           =   0.0000000000000E+00
(PID.TID 0000.0001) %MON extforcing_qsw_mean          =   0.0000000000000E+00
(PID.TID 0000.0001) %MON extforcing_qsw_sd            =   0.0000000000000E+00
(PID.TID 0000.0001) %MON extforcing_empmr_max         =   0.0000000000000E+00
(PID.TID 0000.0001) %MON extforcing_empmr_min         =   0.0000000000000E+00
(PID.TID 0000.0001) %MON extforcing_empmr_mean        =   0.0000000000000E+00
(PID.TID 0000.0001) %MON extforcing_empmr_sd          =   0.0000000000000E+00
(PID.TID 0000.0001) %MON advcfl_uvel_max              =   8.7616418753464E-05
(PID.TID 0000.0001) %MON advcfl_vvel_max              =   8.7622186380263E-05
(PID.TID 0000.0001) %MON advcfl_wvel_max              =   1.0139372845571E-04
(PID.TID 0000.0001) %MON advcfl_W_hf_max              =   3.7852686784217E-05
(PID.TID 0000.0001) %MON pe_b_mean                    =  -1.0143406694494E-04
(PID.TID 0000.0001) %MON ke_max                       =   3.3204015817073E-05
(PID.TID 0000.0001) %MON ke_mean                      =   1.0288452395928E-05
(PID.TID 0000.0001) %MON ke_vol                       =   5.6340000000000E+16
(PID.TID 0000.0001) %MON vort_r_min                   =  -4.0743265258897E-08
(PID.TID 0000.0001) %MON vort_r_max                   =   4.0754904395742E-08
(PID.TID 0000.0001) %MON vort_a_mean                  =   9.9999997473788E-05
(PID.TID 0000.0001) %MON vort_a_sd                    =   8.0700706682918E-09
(PID.TID 0000.0001) %MON vort_p_mean                  =   1.0398839476244E-04
(PID.TID 0000.0001) %MON vort_p_sd                    =   3.0798696990092E-05
(PID.TID 0000.0001) %MON surfExpan_theta_mean         =  -8.8003232661337E-09
(PID.TID 0000.0001) %MON surfExpan_salt_mean          =  -2.0100962916798E-20
(PID.TID 0000.0001) // =======================================================
(PID.TID 0000.0001) // End MONITOR dynamic field statistics
(PID.TID 0000.0001) // =======================================================
 cg2d: Sum(rhs),rhsMax =   2.27373675443232E-13  1.48904509848536E+00
(PID.TID 0000.0001)                    cg2d_init_res =    2.36474128662509E+00
(PID.TID 0000.0001)                       cg2d_iters =    34
(PID.TID 0000.0001)                         cg2d_res =    5.22852267130986E-14
(PID.TID 0000.0001) // =======================================================
(PID.TID 0000.0001) // Begin MONITOR dynamic field statistics
(PID.TID 0000.0001) // =======================================================
(PID.TID 0000.0001) %MON time_tsnumber                =                    19
(PID.TID 0000.0001) %MON time_secondsf                =   2.2800000000000E+04
(PID.TID 0000.0001) %MON dynstat_eta_max              =   3.8293988702503E-01
(PID.TID 0000.0001) %MON dynstat_eta_min              =  -3.8293776058181E-01
(PID.TID 0000.0001) %MON dynstat_eta_mean             =  -5.9904154385176E-17
(PID.TID 0000.0001) %MON dynstat_eta_sd               =   1.6800958554701E-01
(PID.TID 0000.0001) %MON dynstat_eta_del2             =   1.6517597208340E-03
(PID.TID 0000.0001) %MON dynstat_uvel_max             =   8.3805445172655E-03
(PID.TID 0000.0001) %MON dynstat_uvel_min             =  -8.3805445172655E-03
(PID.TID 0000.0001) %MON dynstat_uvel_mean            =   9.9143402720812E-19
(PID.TID 0000.0001) %MON dynstat_uvel_sd              =   3.7218895377762E-03
(PID.TID 0000.0001) %MON dynstat_uvel_del2            =   4.6885644840634E-05
(PID.TID 0000.0001) %MON dynstat_vvel_max             =   8.3808031183824E-03
(PID.TID 0000.0001) %MON dynstat_vvel_min             =  -8.3808031183823E-03
(PID.TID 0000.0001) %MON dynstat_vvel_mean            =   4.7801283454677E-19
(PID.TID 0000.0001) %MON dynstat_vvel_sd              =   3.7217886258567E-03
(PID.TID 0000.0001) %MON dynstat_vvel_del2            =   4.6879253870160E-05
(PID.TID 0000.0001) %MON dynstat_wvel_max             =   3.0324643645929E-05
(PID.TID 0000.0001) %MON dynstat_wvel_min             =  -3.0324531764998E-05
(PID.TID 0000.0001) %MON dynstat_wvel_mean            =   5.9970392651123E-22
(PID.TID 0000.0001) %MON dynstat_wvel_sd              =   8.7440895616090E-06
(PID.TID 0000.0001) %MON dynstat_wvel_del2            =   8.7681604050326E-08
(PID.TID 0000.0001) %MON dynstat_theta_max            =   1.9993598226496E+01
(PID.TID 0000.0001) %MON dynstat_theta_min            =   6.0016428330224E+00
(PID.TID 0000.0001) %MON dynstat_theta_mean           =   1.1000000051312E+01
(PID.TID 0000.0001) %MON dynstat_theta_sd             =   5.3805968887479E+00
(PID.TID 0000.0001) %MON dynstat_theta_del2           =   7.0199797877991E-06
(PID.TID 0000.0001) %MON dynstat_salt_max             =   1.0000000000000E+01
(PID.TID 0000.0001) %MON dynstat_salt_min             =   1.0000000000000E+01
(PID.TID 0000.0001) %MON dynstat_salt_mean            =   1.0000000000000E+01
(PID.TID 0000.0001) %MON dynstat_salt_sd              =   0.0000000000000E+00
(PID.TID 0000.0001) %MON dynstat_salt_del2            =   0.0000000000000E+00
(PID.TID 0000.0001) %MON extforcing_qnet_max          =   0.0000000000000E+00
(PID.TID 0000.0001) %MON extforcing_qnet_min          =   0.0000000000000E+00
(PID.TID 0000.0001) %MON extforcing_qnet_mean         =   0.0000000000000E+00
(PID.TID 0000.0001) %MON extforcing_qnet_sd           =   0.0000000000000E+00
(PID.TID 0000.0001) %MON extforcing_qsw_max           =   0.0000000000000E+00
(PID.TID 0000.0001) %MON extforcing_qsw_min           =   0.0000000000000E+00
(PID.TID 0000.0001) %MON extforcing_qsw_mean          =   0.0000000000000E+00
(PID.TID 0000.0001) %MON extforcing_qsw_sd            =   0.0000000000000E+00
(PID.TID 0000.0001) %MON extforcing_empmr_max         =   0.0000000000000E+00
(PID.TID 0000.0001) %MON extforcing_empmr_min         =   0.0000000000000E+00
(PID.TID 0000.0001) %MON extforcing_empmr_mean        =   0.0000000000000E+00
(PID.TID 0000.0001) %MON extforcing_empmr_sd          =   0.0000000000000E+00
(PID.TID 0000.0001) %MON advcfl_uvel_max              =   1.0056653166666E-04
(PID.TID 0000.0001) %MON advcfl_vvel_max              =   1.0056963487999E-04
(PID.TID 0000.0001) %MON advcfl_wvel_max              =   1.4555829641411E-04
(PID.TID 0000.0001) %MON advcfl_W_hf_max              =   5.4437054458127E-05
(PID.TID 0000.0001) %MON pe_b_mean                    =  -1.0589917194520E-04
(PID.TID 0000.0001) %MON ke_max                       =   3.9059086047288E-05
(PID.TID 0000.0001) %MON ke_mean                      =   1.3561964363260E-05
(PID.TID 0000.0001) %MON ke_vol                       =   5.6340000000000E+16
(PID.TID 0000.0001) %MON vort_r_min                   =  -5.3188753848235E-08
(PID.TID 0000.0001) %MON vort_r_max                   =   5.3201462510193E-08
(PID.TID 0000.0001) %MON vort_a_mean                  =   9.9999997473787E-05
(PID.TID 0000.0001) %MON vort_a_sd                    =   9.3298581113339E-09
(PID.TID 0000.0001) %MON vort_p_mean                  =   1.0398839476244E-04
(PID.TID 0000.0001) %MON vort_p_sd                    =   3.0798697665410E-05
(PID.TID 0000.0001) %MON surfExpan_theta_mean         =  -1.4130159567394E-08
(PID.TID 0000.0001) %MON surfExpan_salt_mean          =   2.6448635416840E-21
(PID.TID 0000.0001) // =======================================================
(PID.TID 0000.0001) // End MONITOR dynamic field statistics
(PID.TID 0000.0001) // =======================================================
 Compute Stats, Diag. #     23  ETAN      vol(   0 ): 2.817E+13  Parms: SM      M1      
 Compute Stats, Diag. #    136  momKE     vol(   0 ): 5.634E+16  Parms: SM      MR      
 Compute Stats, Diag. #     26  THETA     vol(   0 ): 5.634E+16  Parms: SM      MR      
 Compute Stats, Diag. #     33  THETASQ   vol(   0 ): 5.634E+16  Parms: SM P    MR      
 cg2d: Sum(rhs),rhsMax =   5.79092329644482E-13  1.64050151048944E+00
(PID.TID 0000.0001)                    cg2d_init_res =    2.38500260440660E+00
(PID.TID 0000.0001)                       cg2d_iters =    34
(PID.TID 0000.0001)                         cg2d_res =    5.48387741940227E-14
(PID.TID 0000.0001) // =======================================================
(PID.TID 0000.0001) // Begin MONITOR dynamic field statistics
(PID.TID 0000.0001) // =======================================================
(PID.TID 0000.0001) %MON time_tsnumber                =                    20
(PID.TID 0000.0001) %MON time_secondsf                =   2.4000000000000E+04
(PID.TID 0000.0001) %MON dynstat_eta_max              =   4.2082288629308E-01
(PID.TID 0000.0001) %MON dynstat_eta_min              =  -4.2082125016641E-01
(PID.TID 0000.0001) %MON dynstat_eta_mean             =  -1.0705094255869E-16
(PID.TID 0000.0001) %MON dynstat_eta_sd               =   1.8428285902243E-01
(PID.TID 0000.0001) %MON dynstat_eta_del2             =   1.8179117621585E-03
(PID.TID 0000.0001) %MON dynstat_uvel_max             =   8.8960086193286E-03
(PID.TID 0000.0001) %MON dynstat_uvel_min             =  -8.8960086193285E-03
(PID.TID 0000.0001) %MON dynstat_uvel_mean            =   8.4980059474982E-19
(PID.TID 0000.0001) %MON dynstat_uvel_sd              =   4.0596072294183E-03
(PID.TID 0000.0001) %MON dynstat_uvel_del2            =   5.2597486313200E-05
(PID.TID 0000.0001) %MON dynstat_vvel_max             =   8.8962090570568E-03
(PID.TID 0000.0001) %MON dynstat_vvel_min             =  -8.8962090570567E-03
(PID.TID 0000.0001) %MON dynstat_vvel_mean            =   1.2038841758956E-18
(PID.TID 0000.0001) %MON dynstat_vvel_sd              =   4.0594944448657E-03
(PID.TID 0000.0001) %MON dynstat_vvel_del2            =   5.2590910190384E-05
(PID.TID 0000.0001) %MON dynstat_wvel_max             =   3.3833926834348E-05
(PID.TID 0000.0001) %MON dynstat_wvel_min             =  -3.3833655749140E-05
(PID.TID 0000.0001) %MON dynstat_wvel_mean            =   4.4494162289543E-22
(PID.TID 0000.0001) %MON dynstat_wvel_sd              =   9.7203697624424E-06
(PID.TID 0000.0001) %MON dynstat_wvel_del2            =   9.6256338497139E-08
(PID.TID 0000.0001) %MON dynstat_theta_max            =   1.9993418490500E+01
(PID.TID 0000.0001) %MON dynstat_theta_min            =   6.0017187561013E+00
(PID.TID 0000.0001) %MON dynstat_theta_mean           =   1.1000000061709E+01
(PID.TID 0000.0001) %MON dynstat_theta_sd             =   5.3803567373659E+00
(PID.TID 0000.0001) %MON dynstat_theta_del2           =   7.7986156259875E-06
(PID.TID 0000.0001) %MON dynstat_salt_max             =   1.0000000000000E+01
(PID.TID 0000.0001) %MON dynstat_salt_min             =   1.0000000000000E+01
(PID.TID 0000.0001) %MON dynstat_salt_mean            =   1.0000000000000E+01
(PID.TID 0000.0001) %MON dynstat_salt_sd              =   0.0000000000000E+00
(PID.TID 0000.0001) %MON dynstat_salt_del2            =   0.0000000000000E+00
(PID.TID 0000.0001) %MON extforcing_qnet_max          =   0.0000000000000E+00
(PID.TID 0000.0001) %MON extforcing_qnet_min          =   0.0000000000000E+00
(PID.TID 0000.0001) %MON extforcing_qnet_mean         =   0.0000000000000E+00
(PID.TID 0000.0001) %MON extforcing_qnet_sd           =   0.0000000000000E+00
(PID.TID 0000.0001) %MON extforcing_qsw_max           =   0.0000000000000E+00
(PID.TID 0000.0001) %MON extforcing_qsw_min           =   0.0000000000000E+00
(PID.TID 0000.0001) %MON extforcing_qsw_mean          =   0.0000000000000E+00
(PID.TID 0000.0001) %MON extforcing_qsw_sd            =   0.0000000000000E+00
(PID.TID 0000.0001) %MON extforcing_empmr_max         =   0.0000000000000E+00
(PID.TID 0000.0001) %MON extforcing_empmr_min         =   0.0000000000000E+00
(PID.TID 0000.0001) %MON extforcing_empmr_mean        =   0.0000000000000E+00
(PID.TID 0000.0001) %MON extforcing_empmr_sd          =   0.0000000000000E+00
(PID.TID 0000.0001) %MON advcfl_uvel_max              =   1.0675210073516E-04
(PID.TID 0000.0001) %MON advcfl_vvel_max              =   1.0675450598784E-04
(PID.TID 0000.0001) %MON advcfl_wvel_max              =   1.6240285651859E-04
(PID.TID 0000.0001) %MON advcfl_W_hf_max              =   6.0775466331236E-05
(PID.TID 0000.0001) %MON pe_b_mean                    =  -1.0940230946222E-04
(PID.TID 0000.0001) %MON ke_max                       =   4.2746190281904E-05
(PID.TID 0000.0001) %MON ke_mean                      =   1.6134792467501E-05
(PID.TID 0000.0001) %MON ke_vol                       =   5.6340000000000E+16
(PID.TID 0000.0001) %MON vort_r_min                   =  -6.2212084461086E-08
(PID.TID 0000.0001) %MON vort_r_max                   =   6.2224904820521E-08
(PID.TID 0000.0001) %MON vort_a_mean                  =   9.9999997473788E-05
(PID.TID 0000.0001) %MON vort_a_sd                    =   1.0516536120942E-08
(PID.TID 0000.0001) %MON vort_p_mean                  =   1.0398839476244E-04
(PID.TID 0000.0001) %MON vort_p_sd                    =   3.0798698355587E-05
(PID.TID 0000.0001) %MON surfExpan_theta_mean         =  -1.7894158915351E-08
(PID.TID 0000.0001) %MON surfExpan_salt_mean          =  -2.5126203645998E-21
(PID.TID 0000.0001) // =======================================================
(PID.TID 0000.0001) // End MONITOR dynamic field statistics
(PID.TID 0000.0001) // =======================================================
 cg2d: Sum(rhs),rhsMax =   5.86197757002083E-13  1.78373925156686E+00
(PID.TID 0000.0001)                    cg2d_init_res =    2.09309344175409E+00
(PID.TID 0000.0001)                       cg2d_iters =    34
(PID.TID 0000.0001)                         cg2d_res =    5.20199039172703E-14
(PID.TID 0000.0001) // =======================================================
(PID.TID 0000.0001) // Begin MONITOR dynamic field statistics
(PID.TID 0000.0001) // =======================================================
(PID.TID 0000.0001) %MON time_tsnumber                =                    21
(PID.TID 0000.0001) %MON time_secondsf                =   2.5200000000000E+04
(PID.TID 0000.0001) %MON dynstat_eta_max              =   4.5666348296635E-01
(PID.TID 0000.0001) %MON dynstat_eta_min              =  -4.5666256649827E-01
(PID.TID 0000.0001) %MON dynstat_eta_mean             =  -1.0760561065485E-16
(PID.TID 0000.0001) %MON dynstat_eta_sd               =   1.9996941999088E-01
(PID.TID 0000.0001) %MON dynstat_eta_del2             =   1.9780209125295E-03
(PID.TID 0000.0001) %MON dynstat_uvel_max             =   8.7940710338231E-03
(PID.TID 0000.0001) %MON dynstat_uvel_min             =  -8.7940710338231E-03
(PID.TID 0000.0001) %MON dynstat_uvel_mean            =   0.0000000000000E+00
(PID.TID 0000.0001) %MON dynstat_uvel_sd              =   4.2019437545932E-03
(PID.TID 0000.0001) %MON dynstat_uvel_del2            =   5.4879731961554E-05
(PID.TID 0000.0001) %MON dynstat_vvel_max             =   8.7942275130904E-03
(PID.TID 0000.0001) %MON dynstat_vvel_min             =  -8.7942275130903E-03
(PID.TID 0000.0001) %MON dynstat_vvel_mean            =   9.7372984815083E-20
(PID.TID 0000.0001) %MON dynstat_vvel_sd              =   4.2018368523615E-03
(PID.TID 0000.0001) %MON dynstat_vvel_del2            =   5.4873066045771E-05
(PID.TID 0000.0001) %MON dynstat_wvel_max             =   3.1889136637136E-05
(PID.TID 0000.0001) %MON dynstat_wvel_min             =  -3.1889178421907E-05
(PID.TID 0000.0001) %MON dynstat_wvel_mean            =   7.9315680603099E-22
(PID.TID 0000.0001) %MON dynstat_wvel_sd              =   9.2889977936848E-06
(PID.TID 0000.0001) %MON dynstat_wvel_del2            =   9.1418639961221E-08
(PID.TID 0000.0001) %MON dynstat_theta_max            =   1.9993240276973E+01
(PID.TID 0000.0001) %MON dynstat_theta_min            =   6.0017945668733E+00
(PID.TID 0000.0001) %MON dynstat_theta_mean           =   1.1000000073800E+01
(PID.TID 0000.0001) %MON dynstat_theta_sd             =   5.3801166134565E+00
(PID.TID 0000.0001) %MON dynstat_theta_del2           =   8.5982127980521E-06
(PID.TID 0000.0001) %MON dynstat_salt_max             =   1.0000000000000E+01
(PID.TID 0000.0001) %MON dynstat_salt_min             =   1.0000000000000E+01
(PID.TID 0000.0001) %MON dynstat_salt_mean            =   1.0000000000000E+01
(PID.TID 0000.0001) %MON dynstat_salt_sd              =   0.0000000000000E+00
(PID.TID 0000.0001) %MON dynstat_salt_del2            =   0.0000000000000E+00
(PID.TID 0000.0001) %MON extforcing_qnet_max          =   0.0000000000000E+00
(PID.TID 0000.0001) %MON extforcing_qnet_min          =   0.0000000000000E+00
(PID.TID 0000.0001) %MON extforcing_qnet_mean         =   0.0000000000000E+00
(PID.TID 0000.0001) %MON extforcing_qnet_sd           =   0.0000000000000E+00
(PID.TID 0000.0001) %MON extforcing_qsw_max           =   0.0000000000000E+00
(PID.TID 0000.0001) %MON extforcing_qsw_min           =   0.0000000000000E+00
(PID.TID 0000.0001) %MON extforcing_qsw_mean          =   0.0000000000000E+00
(PID.TID 0000.0001) %MON extforcing_qsw_sd            =   0.0000000000000E+00
(PID.TID 0000.0001) %MON extforcing_empmr_max         =   0.0000000000000E+00
(PID.TID 0000.0001) %MON extforcing_empmr_min         =   0.0000000000000E+00
(PID.TID 0000.0001) %MON extforcing_empmr_mean        =   0.0000000000000E+00
(PID.TID 0000.0001) %MON extforcing_empmr_sd          =   0.0000000000000E+00
(PID.TID 0000.0001) %MON advcfl_uvel_max              =   1.0552884973999E-04
(PID.TID 0000.0001) %MON advcfl_vvel_max              =   1.0553072749115E-04
(PID.TID 0000.0001) %MON advcfl_wvel_max              =   1.5306806369550E-04
(PID.TID 0000.0001) %MON advcfl_W_hf_max              =   5.7295167354818E-05
(PID.TID 0000.0001) %MON pe_b_mean                    =  -1.1126681272665E-04
(PID.TID 0000.0001) %MON ke_max                       =   4.7241552408432E-05
(PID.TID 0000.0001) %MON ke_mean                      =   1.7286092616832E-05
(PID.TID 0000.0001) %MON ke_vol                       =   5.6340000000000E+16
(PID.TID 0000.0001) %MON vort_r_min                   =  -6.5660183146208E-08
(PID.TID 0000.0001) %MON vort_r_max                   =   6.5672620540662E-08
(PID.TID 0000.0001) %MON vort_a_mean                  =   9.9999997473787E-05
(PID.TID 0000.0001) %MON vort_a_sd                    =   1.1458674262760E-08
(PID.TID 0000.0001) %MON vort_p_mean                  =   1.0398839476244E-04
(PID.TID 0000.0001) %MON vort_p_sd                    =   3.0798698921263E-05
(PID.TID 0000.0001) %MON surfExpan_theta_mean         =  -1.8978642272015E-08
(PID.TID 0000.0001) %MON surfExpan_salt_mean          =   1.0050481458399E-20
(PID.TID 0000.0001) // =======================================================
(PID.TID 0000.0001) // End MONITOR dynamic field statistics
(PID.TID 0000.0001) // =======================================================
 cg2d: Sum(rhs),rhsMax =   6.60804744256893E-13  1.90459737740478E+00
(PID.TID 0000.0001)                    cg2d_init_res =    1.62288902728772E+00
(PID.TID 0000.0001)                       cg2d_iters =    34
(PID.TID 0000.0001)                         cg2d_res =    4.39877280438533E-14
(PID.TID 0000.0001) // =======================================================
(PID.TID 0000.0001) // Begin MONITOR dynamic field statistics
(PID.TID 0000.0001) // =======================================================
(PID.TID 0000.0001) %MON time_tsnumber                =                    22
(PID.TID 0000.0001) %MON time_secondsf                =   2.6400000000000E+04
(PID.TID 0000.0001) %MON dynstat_eta_max              =   4.8684338537963E-01
(PID.TID 0000.0001) %MON dynstat_eta_min              =  -4.8684425476494E-01
(PID.TID 0000.0001) %MON dynstat_eta_mean             =  -1.4144036452055E-16
(PID.TID 0000.0001) %MON dynstat_eta_sd               =   2.1280460099449E-01
(PID.TID 0000.0001) %MON dynstat_eta_del2             =   2.1104464889096E-03
(PID.TID 0000.0001) %MON dynstat_uvel_max             =   8.1549497472234E-03
(PID.TID 0000.0001) %MON dynstat_uvel_min             =  -8.1549497472234E-03
(PID.TID 0000.0001) %MON dynstat_uvel_mean            =   3.5408358114576E-19
(PID.TID 0000.0001) %MON dynstat_uvel_sd              =   4.1911535286775E-03
(PID.TID 0000.0001) %MON dynstat_uvel_del2            =   5.4270724429331E-05
(PID.TID 0000.0001) %MON dynstat_vvel_max             =   8.1537971519988E-03
(PID.TID 0000.0001) %MON dynstat_vvel_min             =  -8.1537971519990E-03
(PID.TID 0000.0001) %MON dynstat_vvel_mean            =  -5.7981186412618E-19
(PID.TID 0000.0001) %MON dynstat_vvel_sd              =   4.1910636830390E-03
(PID.TID 0000.0001) %MON dynstat_vvel_del2            =   5.4263804546101E-05
(PID.TID 0000.0001) %MON dynstat_wvel_max             =   2.5565765409728E-05
(PID.TID 0000.0001) %MON dynstat_wvel_min             =  -2.5566764113983E-05
(PID.TID 0000.0001) %MON dynstat_wvel_mean            =   0.0000000000000E+00
(PID.TID 0000.0001) %MON dynstat_wvel_sd              =   7.7178849759823E-06
(PID.TID 0000.0001) %MON dynstat_wvel_del2            =   7.5640451596316E-08
(PID.TID 0000.0001) %MON dynstat_theta_max            =   1.9993027683276E+01
(PID.TID 0000.0001) %MON dynstat_theta_min            =   6.0018726604295E+00
(PID.TID 0000.0001) %MON dynstat_theta_mean           =   1.1000000085578E+01
(PID.TID 0000.0001) %MON dynstat_theta_sd             =   5.3798765136869E+00
(PID.TID 0000.0001) %MON dynstat_theta_del2           =   9.3042275824745E-06
(PID.TID 0000.0001) %MON dynstat_salt_max             =   1.0000000000000E+01
(PID.TID 0000.0001) %MON dynstat_salt_min             =   1.0000000000000E+01
(PID.TID 0000.0001) %MON dynstat_salt_mean            =   1.0000000000000E+01
(PID.TID 0000.0001) %MON dynstat_salt_sd              =   0.0000000000000E+00
(PID.TID 0000.0001) %MON dynstat_salt_del2            =   0.0000000000000E+00
(PID.TID 0000.0001) %MON extforcing_qnet_max          =   0.0000000000000E+00
(PID.TID 0000.0001) %MON extforcing_qnet_min          =   0.0000000000000E+00
(PID.TID 0000.0001) %MON extforcing_qnet_mean         =   0.0000000000000E+00
(PID.TID 0000.0001) %MON extforcing_qnet_sd           =   0.0000000000000E+00
(PID.TID 0000.0001) %MON extforcing_qsw_max           =   0.0000000000000E+00
(PID.TID 0000.0001) %MON extforcing_qsw_min           =   0.0000000000000E+00
(PID.TID 0000.0001) %MON extforcing_qsw_mean          =   0.0000000000000E+00
(PID.TID 0000.0001) %MON extforcing_qsw_sd            =   0.0000000000000E+00
(PID.TID 0000.0001) %MON extforcing_empmr_max         =   0.0000000000000E+00
(PID.TID 0000.0001) %MON extforcing_empmr_min         =   0.0000000000000E+00
(PID.TID 0000.0001) %MON extforcing_empmr_mean        =   0.0000000000000E+00
(PID.TID 0000.0001) %MON extforcing_empmr_sd          =   0.0000000000000E+00
(PID.TID 0000.0001) %MON advcfl_uvel_max              =   9.7859394494545E-05
(PID.TID 0000.0001) %MON advcfl_vvel_max              =   9.7845563352201E-05
(PID.TID 0000.0001) %MON advcfl_wvel_max              =   1.2272047357603E-04
(PID.TID 0000.0001) %MON advcfl_W_hf_max              =   4.5932606815105E-05
(PID.TID 0000.0001) %MON pe_b_mean                    =  -1.1172615362918E-04
(PID.TID 0000.0001) %MON ke_max                       =   4.8395340808346E-05
(PID.TID 0000.0001) %MON ke_mean                      =   1.7197497102630E-05
(PID.TID 0000.0001) %MON ke_vol                       =   5.6340000000000E+16
(PID.TID 0000.0001) %MON vort_r_min                   =  -6.4051592630544E-08
(PID.TID 0000.0001) %MON vort_r_max                   =   6.4063225976533E-08
(PID.TID 0000.0001) %MON vort_a_mean                  =   9.9999997473788E-05
(PID.TID 0000.0001) %MON vort_a_sd                    =   1.2099712833330E-08
(PID.TID 0000.0001) %MON vort_p_mean                  =   1.0398839476244E-04
(PID.TID 0000.0001) %MON vort_p_sd                    =   3.0798699292667E-05
(PID.TID 0000.0001) %MON surfExpan_theta_mean         =  -1.6760803198081E-08
(PID.TID 0000.0001) %MON surfExpan_salt_mean          =   1.5869181250104E-20
(PID.TID 0000.0001) // =======================================================
(PID.TID 0000.0001) // End MONITOR dynamic field statistics
(PID.TID 0000.0001) // =======================================================
 cg2d: Sum(rhs),rhsMax =   5.57776047571679E-13  1.98206304154914E+00
(PID.TID 0000.0001)                    cg2d_init_res =    1.09330364278284E+00
(PID.TID 0000.0001)                       cg2d_iters =    33
(PID.TID 0000.0001)                         cg2d_res =    9.89649113601500E-14
(PID.TID 0000.0001) // =======================================================
(PID.TID 0000.0001) // Begin MONITOR dynamic field statistics
(PID.TID 0000.0001) // =======================================================
(PID.TID 0000.0001) %MON time_tsnumber                =                    23
(PID.TID 0000.0001) %MON time_secondsf                =   2.7600000000000E+04
(PID.TID 0000.0001) %MON dynstat_eta_max              =   5.0612253589199E-01
(PID.TID 0000.0001) %MON dynstat_eta_min              =  -5.0612634099746E-01
(PID.TID 0000.0001) %MON dynstat_eta_mean             =  -1.1148828732797E-16
(PID.TID 0000.0001) %MON dynstat_eta_sd               =   2.2120745352769E-01
(PID.TID 0000.0001) %MON dynstat_eta_del2             =   2.1992526417189E-03
(PID.TID 0000.0001) %MON dynstat_uvel_max             =   8.8634247025271E-03
(PID.TID 0000.0001) %MON dynstat_uvel_min             =  -8.8634247025270E-03
(PID.TID 0000.0001) %MON dynstat_uvel_mean            =   7.0816716229152E-20
(PID.TID 0000.0001) %MON dynstat_uvel_sd              =   4.1100657302110E-03
(PID.TID 0000.0001) %MON dynstat_uvel_del2            =   5.1928672627665E-05
(PID.TID 0000.0001) %MON dynstat_vvel_max             =   8.8638295905843E-03
(PID.TID 0000.0001) %MON dynstat_vvel_min             =  -8.8638295905843E-03
(PID.TID 0000.0001) %MON dynstat_vvel_mean            =  -1.9695899201233E-19
(PID.TID 0000.0001) %MON dynstat_vvel_sd              =   4.1100021515958E-03
(PID.TID 0000.0001) %MON dynstat_vvel_del2            =   5.1921402988402E-05
(PID.TID 0000.0001) %MON dynstat_wvel_max             =   1.6346935557093E-05
(PID.TID 0000.0001) %MON dynstat_wvel_min             =  -1.6348890643135E-05
(PID.TID 0000.0001) %MON dynstat_wvel_mean            =   1.5476230361580E-22
(PID.TID 0000.0001) %MON dynstat_wvel_sd              =   5.4692189520373E-06
(PID.TID 0000.0001) %MON dynstat_wvel_del2            =   5.2532559701483E-08
(PID.TID 0000.0001) %MON dynstat_theta_max            =   1.9992740903739E+01
(PID.TID 0000.0001) %MON dynstat_theta_min            =   6.0019556938289E+00
(PID.TID 0000.0001) %MON dynstat_theta_mean           =   1.1000000094836E+01
(PID.TID 0000.0001) %MON dynstat_theta_sd             =   5.3796364346120E+00
(PID.TID 0000.0001) %MON dynstat_theta_del2           =   9.8258964648306E-06
(PID.TID 0000.0001) %MON dynstat_salt_max             =   1.0000000000000E+01
(PID.TID 0000.0001) %MON dynstat_salt_min             =   1.0000000000000E+01
(PID.TID 0000.0001) %MON dynstat_salt_mean            =   1.0000000000000E+01
(PID.TID 0000.0001) %MON dynstat_salt_sd              =   0.0000000000000E+00
(PID.TID 0000.0001) %MON dynstat_salt_del2            =   0.0000000000000E+00
(PID.TID 0000.0001) %MON extforcing_qnet_max          =   0.0000000000000E+00
(PID.TID 0000.0001) %MON extforcing_qnet_min          =   0.0000000000000E+00
(PID.TID 0000.0001) %MON extforcing_qnet_mean         =   0.0000000000000E+00
(PID.TID 0000.0001) %MON extforcing_qnet_sd           =   0.0000000000000E+00
(PID.TID 0000.0001) %MON extforcing_qsw_max           =   0.0000000000000E+00
(PID.TID 0000.0001) %MON extforcing_qsw_min           =   0.0000000000000E+00
(PID.TID 0000.0001) %MON extforcing_qsw_mean          =   0.0000000000000E+00
(PID.TID 0000.0001) %MON extforcing_qsw_sd            =   0.0000000000000E+00
(PID.TID 0000.0001) %MON extforcing_empmr_max         =   0.0000000000000E+00
(PID.TID 0000.0001) %MON extforcing_empmr_min         =   0.0000000000000E+00
(PID.TID 0000.0001) %MON extforcing_empmr_mean        =   0.0000000000000E+00
(PID.TID 0000.0001) %MON extforcing_empmr_sd          =   0.0000000000000E+00
(PID.TID 0000.0001) %MON advcfl_uvel_max              =   1.0636109374342E-04
(PID.TID 0000.0001) %MON advcfl_vvel_max              =   1.0636595239998E-04
(PID.TID 0000.0001) %MON advcfl_wvel_max              =   7.8474678814397E-05
(PID.TID 0000.0001) %MON advcfl_W_hf_max              =   2.9358889724946E-05
(PID.TID 0000.0001) %MON pe_b_mean                    =  -1.1150356167368E-04
(PID.TID 0000.0001) %MON ke_max                       =   4.7575572030485E-05
(PID.TID 0000.0001) %MON ke_mean                      =   1.6538580501256E-05
(PID.TID 0000.0001) %MON ke_vol                       =   5.6340000000000E+16
(PID.TID 0000.0001) %MON vort_r_min                   =  -5.8415661786494E-08
(PID.TID 0000.0001) %MON vort_r_max                   =   5.8426313581364E-08
(PID.TID 0000.0001) %MON vort_a_mean                  =   9.9999997473788E-05
(PID.TID 0000.0001) %MON vort_a_sd                    =   1.2440975399260E-08
(PID.TID 0000.0001) %MON vort_p_mean                  =   1.0398839476244E-04
(PID.TID 0000.0001) %MON vort_p_sd                    =   3.0798699459763E-05
(PID.TID 0000.0001) %MON surfExpan_theta_mean         =  -1.1557927101440E-08
(PID.TID 0000.0001) %MON surfExpan_salt_mean          =  -3.1738362500208E-21
(PID.TID 0000.0001) // =======================================================
(PID.TID 0000.0001) // End MONITOR dynamic field statistics
(PID.TID 0000.0001) // =======================================================
 cg2d: Sum(rhs),rhsMax =   3.96127575186256E-13  2.01020125076883E+00
(PID.TID 0000.0001)                    cg2d_init_res =    6.25776751709460E-01
(PID.TID 0000.0001)                       cg2d_iters =    33
(PID.TID 0000.0001)                         cg2d_res =    6.72234842757645E-14
(PID.TID 0000.0001) // =======================================================
(PID.TID 0000.0001) // Begin MONITOR dynamic field statistics
(PID.TID 0000.0001) // =======================================================
(PID.TID 0000.0001) %MON time_tsnumber                =                    24
(PID.TID 0000.0001) %MON time_secondsf                =   2.8800000000000E+04
(PID.TID 0000.0001) %MON dynstat_eta_max              =   5.1301190107731E-01
(PID.TID 0000.0001) %MON dynstat_eta_min              =  -5.1301936968835E-01
(PID.TID 0000.0001) %MON dynstat_eta_mean             =  -1.1148828732797E-16
(PID.TID 0000.0001) %MON dynstat_eta_sd               =   2.2445038420114E-01
(PID.TID 0000.0001) %MON dynstat_eta_del2             =   2.2368538596846E-03
(PID.TID 0000.0001) %MON dynstat_uvel_max             =   9.3581343370435E-03
(PID.TID 0000.0001) %MON dynstat_uvel_min             =  -9.3581343370435E-03
(PID.TID 0000.0001) %MON dynstat_uvel_mean            =   3.5408358114576E-19
(PID.TID 0000.0001) %MON dynstat_uvel_sd              =   4.0344809374658E-03
(PID.TID 0000.0001) %MON dynstat_uvel_del2            =   4.9745743999026E-05
(PID.TID 0000.0001) %MON dynstat_vvel_max             =   9.3585536085569E-03
(PID.TID 0000.0001) %MON dynstat_vvel_min             =  -9.3585536085570E-03
(PID.TID 0000.0001) %MON dynstat_vvel_mean            =  -1.0622507434373E-19
(PID.TID 0000.0001) %MON dynstat_vvel_sd              =   4.0344516541237E-03
(PID.TID 0000.0001) %MON dynstat_vvel_del2            =   4.9738973669583E-05
(PID.TID 0000.0001) %MON dynstat_wvel_max             =   1.0876901705595E-05
(PID.TID 0000.0001) %MON dynstat_wvel_min             =  -1.0874741871078E-05
(PID.TID 0000.0001) %MON dynstat_wvel_mean            =   6.9643036627111E-22
(PID.TID 0000.0001) %MON dynstat_wvel_sd              =   3.3046665163184E-06
(PID.TID 0000.0001) %MON dynstat_wvel_del2            =   2.6922977365803E-08
(PID.TID 0000.0001) %MON dynstat_theta_max            =   1.9992356956990E+01
(PID.TID 0000.0001) %MON dynstat_theta_min            =   6.0020452012544E+00
(PID.TID 0000.0001) %MON dynstat_theta_mean           =   1.1000000099897E+01
(PID.TID 0000.0001) %MON dynstat_theta_sd             =   5.3793963737080E+00
(PID.TID 0000.0001) %MON dynstat_theta_del2           =   1.0111280750173E-05
(PID.TID 0000.0001) %MON dynstat_salt_max             =   1.0000000000000E+01
(PID.TID 0000.0001) %MON dynstat_salt_min             =   1.0000000000000E+01
(PID.TID 0000.0001) %MON dynstat_salt_mean            =   1.0000000000000E+01
(PID.TID 0000.0001) %MON dynstat_salt_sd              =   0.0000000000000E+00
(PID.TID 0000.0001) %MON dynstat_salt_del2            =   0.0000000000000E+00
(PID.TID 0000.0001) %MON extforcing_qnet_max          =   0.0000000000000E+00
(PID.TID 0000.0001) %MON extforcing_qnet_min          =   0.0000000000000E+00
(PID.TID 0000.0001) %MON extforcing_qnet_mean         =   0.0000000000000E+00
(PID.TID 0000.0001) %MON extforcing_qnet_sd           =   0.0000000000000E+00
(PID.TID 0000.0001) %MON extforcing_qsw_max           =   0.0000000000000E+00
(PID.TID 0000.0001) %MON extforcing_qsw_min           =   0.0000000000000E+00
(PID.TID 0000.0001) %MON extforcing_qsw_mean          =   0.0000000000000E+00
(PID.TID 0000.0001) %MON extforcing_qsw_sd            =   0.0000000000000E+00
(PID.TID 0000.0001) %MON extforcing_empmr_max         =   0.0000000000000E+00
(PID.TID 0000.0001) %MON extforcing_empmr_min         =   0.0000000000000E+00
(PID.TID 0000.0001) %MON extforcing_empmr_mean        =   0.0000000000000E+00
(PID.TID 0000.0001) %MON extforcing_empmr_sd          =   0.0000000000000E+00
(PID.TID 0000.0001) %MON advcfl_uvel_max              =   1.1229760920765E-04
(PID.TID 0000.0001) %MON advcfl_vvel_max              =   1.1230264046568E-04
(PID.TID 0000.0001) %MON advcfl_wvel_max              =   5.2209130666658E-05
(PID.TID 0000.0001) %MON advcfl_W_hf_max              =   1.9573351711379E-05
(PID.TID 0000.0001) %MON pe_b_mean                    =  -1.1127566490041E-04
(PID.TID 0000.0001) %MON ke_max                       =   4.6472164775090E-05
(PID.TID 0000.0001) %MON ke_mean                      =   1.5936010170274E-05
(PID.TID 0000.0001) %MON ke_vol                       =   5.6340000000000E+16
(PID.TID 0000.0001) %MON vort_r_min                   =  -5.0100374310207E-08
(PID.TID 0000.0001) %MON vort_r_max                   =   5.0110178010521E-08
(PID.TID 0000.0001) %MON vort_a_mean                  =   9.9999997473787E-05
(PID.TID 0000.0001) %MON vort_a_sd                    =   1.2510662333216E-08
(PID.TID 0000.0001) %MON vort_p_mean                  =   1.0398839476244E-04
(PID.TID 0000.0001) %MON vort_p_sd                    =   3.0798699448329E-05
(PID.TID 0000.0001) %MON surfExpan_theta_mean         =  -4.5838187770277E-09
(PID.TID 0000.0001) %MON surfExpan_salt_mean          =  -1.0579454166736E-20
(PID.TID 0000.0001) // =======================================================
(PID.TID 0000.0001) // End MONITOR dynamic field statistics
(PID.TID 0000.0001) // =======================================================
 cg2d: Sum(rhs),rhsMax =   5.28466159721575E-13  1.99087296473081E+00
(PID.TID 0000.0001)                    cg2d_init_res =    5.15334840493642E-01
(PID.TID 0000.0001)                       cg2d_iters =    32
(PID.TID 0000.0001)                         cg2d_res =    9.37089896561182E-14
(PID.TID 0000.0001) // =======================================================
(PID.TID 0000.0001) // Begin MONITOR dynamic field statistics
(PID.TID 0000.0001) // =======================================================
(PID.TID 0000.0001) %MON time_tsnumber                =                    25
(PID.TID 0000.0001) %MON time_secondsf                =   3.0000000000000E+04
(PID.TID 0000.0001) %MON dynstat_eta_max              =   5.0798548593497E-01
(PID.TID 0000.0001) %MON dynstat_eta_min              =  -5.0799650343163E-01
(PID.TID 0000.0001) %MON dynstat_eta_mean             =  -5.9488153313056E-17
(PID.TID 0000.0001) %MON dynstat_eta_sd               =   2.2266255107831E-01
(PID.TID 0000.0001) %MON dynstat_eta_del2             =   2.2240031859642E-03
(PID.TID 0000.0001) %MON dynstat_uvel_max             =   9.5943367362142E-03
(PID.TID 0000.0001) %MON dynstat_uvel_min             =  -9.5943367362142E-03
(PID.TID 0000.0001) %MON dynstat_uvel_mean            =   0.0000000000000E+00
(PID.TID 0000.0001) %MON dynstat_uvel_sd              =   3.9953975460260E-03
(PID.TID 0000.0001) %MON dynstat_uvel_del2            =   4.8626719851994E-05
(PID.TID 0000.0001) %MON dynstat_vvel_max             =   9.5950823417412E-03
(PID.TID 0000.0001) %MON dynstat_vvel_min             =  -9.5950823417412E-03
(PID.TID 0000.0001) %MON dynstat_vvel_mean            =  -6.6390671464830E-20
(PID.TID 0000.0001) %MON dynstat_vvel_sd              =   3.9954071428375E-03
(PID.TID 0000.0001) %MON dynstat_vvel_del2            =   4.8622153878530E-05
(PID.TID 0000.0001) %MON dynstat_wvel_max             =   7.8341847090420E-06
(PID.TID 0000.0001) %MON dynstat_wvel_min             =  -7.8330960592622E-06
(PID.TID 0000.0001) %MON dynstat_wvel_mean            =  -1.3928607325422E-21
(PID.TID 0000.0001) %MON dynstat_wvel_sd              =   2.7794565931773E-06
(PID.TID 0000.0001) %MON dynstat_wvel_del2            =   1.8025621998935E-08
(PID.TID 0000.0001) %MON dynstat_theta_max            =   1.9991873733235E+01
(PID.TID 0000.0001) %MON dynstat_theta_min            =   6.0021413239445E+00
(PID.TID 0000.0001) %MON dynstat_theta_mean           =   1.1000000100137E+01
(PID.TID 0000.0001) %MON dynstat_theta_sd             =   5.3791563300917E+00
(PID.TID 0000.0001) %MON dynstat_theta_del2           =   1.0149592121251E-05
(PID.TID 0000.0001) %MON dynstat_salt_max             =   1.0000000000000E+01
(PID.TID 0000.0001) %MON dynstat_salt_min             =   1.0000000000000E+01
(PID.TID 0000.0001) %MON dynstat_salt_mean            =   1.0000000000000E+01
(PID.TID 0000.0001) %MON dynstat_salt_sd              =   0.0000000000000E+00
(PID.TID 0000.0001) %MON dynstat_salt_del2            =   0.0000000000000E+00
(PID.TID 0000.0001) %MON extforcing_qnet_max          =   0.0000000000000E+00
(PID.TID 0000.0001) %MON extforcing_qnet_min          =   0.0000000000000E+00
(PID.TID 0000.0001) %MON extforcing_qnet_mean         =   0.0000000000000E+00
(PID.TID 0000.0001) %MON extforcing_qnet_sd           =   0.0000000000000E+00
(PID.TID 0000.0001) %MON extforcing_qsw_max           =   0.0000000000000E+00
(PID.TID 0000.0001) %MON extforcing_qsw_min           =   0.0000000000000E+00
(PID.TID 0000.0001) %MON extforcing_qsw_mean          =   0.0000000000000E+00
(PID.TID 0000.0001) %MON extforcing_qsw_sd            =   0.0000000000000E+00
(PID.TID 0000.0001) %MON extforcing_empmr_max         =   0.0000000000000E+00
(PID.TID 0000.0001) %MON extforcing_empmr_min         =   0.0000000000000E+00
(PID.TID 0000.0001) %MON extforcing_empmr_mean        =   0.0000000000000E+00
(PID.TID 0000.0001) %MON extforcing_empmr_sd          =   0.0000000000000E+00
(PID.TID 0000.0001) %MON advcfl_uvel_max              =   1.1513203792609E-04
(PID.TID 0000.0001) %MON advcfl_vvel_max              =   1.1514098519219E-04
(PID.TID 0000.0001) %MON advcfl_wvel_max              =   3.7604088389500E-05
(PID.TID 0000.0001) %MON advcfl_W_hf_max              =   1.4108610182584E-05
(PID.TID 0000.0001) %MON pe_b_mean                    =  -1.1132315935956E-04
(PID.TID 0000.0001) %MON ke_max                       =   4.6220041633134E-05
(PID.TID 0000.0001) %MON ke_mean                      =   1.5628901536178E-05
(PID.TID 0000.0001) %MON ke_vol                       =   5.6340000000000E+16
(PID.TID 0000.0001) %MON vort_r_min                   =  -4.4373348559746E-08
(PID.TID 0000.0001) %MON vort_r_max                   =   4.4379836820379E-08
(PID.TID 0000.0001) %MON vort_a_mean                  =   9.9999997473787E-05
(PID.TID 0000.0001) %MON vort_a_sd                    =   1.2347438142726E-08
(PID.TID 0000.0001) %MON vort_p_mean                  =   1.0398839476244E-04
(PID.TID 0000.0001) %MON vort_p_sd                    =   3.0798699296442E-05
(PID.TID 0000.0001) %MON surfExpan_theta_mean         =   2.5058847159687E-09
(PID.TID 0000.0001) %MON surfExpan_salt_mean          =   1.4811235833430E-20
(PID.TID 0000.0001) // =======================================================
(PID.TID 0000.0001) // End MONITOR dynamic field statistics
(PID.TID 0000.0001) // =======================================================
 cg2d: Sum(rhs),rhsMax =   4.07562872339895E-13  1.93248468203440E+00
(PID.TID 0000.0001)                    cg2d_init_res =    8.12416920119050E-01
(PID.TID 0000.0001)                       cg2d_iters =    33
(PID.TID 0000.0001)                         cg2d_res =    3.79245765967411E-14
(PID.TID 0000.0001) // =======================================================
(PID.TID 0000.0001) // Begin MONITOR dynamic field statistics
(PID.TID 0000.0001) // =======================================================
(PID.TID 0000.0001) %MON time_tsnumber                =                    26
(PID.TID 0000.0001) %MON time_secondsf                =   3.1200000000000E+04
(PID.TID 0000.0001) %MON dynstat_eta_max              =   4.9316409809172E-01
(PID.TID 0000.0001) %MON dynstat_eta_min              =  -4.9317768197242E-01
(PID.TID 0000.0001) %MON dynstat_eta_mean             =  -4.7892123427732E-17
(PID.TID 0000.0001) %MON dynstat_eta_sd               =   2.1670093118204E-01
(PID.TID 0000.0001) %MON dynstat_eta_del2             =   2.1690958958359E-03
(PID.TID 0000.0001) %MON dynstat_uvel_max             =   9.5873874164860E-03
(PID.TID 0000.0001) %MON dynstat_uvel_min             =  -9.5873874164860E-03
(PID.TID 0000.0001) %MON dynstat_uvel_mean            =   0.0000000000000E+00
(PID.TID 0000.0001) %MON dynstat_uvel_sd              =   3.9712258458728E-03
(PID.TID 0000.0001) %MON dynstat_uvel_del2            =   4.8395072149242E-05
(PID.TID 0000.0001) %MON dynstat_vvel_max             =   9.5881150252636E-03
(PID.TID 0000.0001) %MON dynstat_vvel_min             =  -9.5881150252636E-03
(PID.TID 0000.0001) %MON dynstat_vvel_mean            =   7.3029738611313E-19
(PID.TID 0000.0001) %MON dynstat_vvel_sd              =   3.9712729179751E-03
(PID.TID 0000.0001) %MON dynstat_vvel_del2            =   4.8393779721633E-05
(PID.TID 0000.0001) %MON dynstat_wvel_max             =   1.3479631698107E-05
(PID.TID 0000.0001) %MON dynstat_wvel_min             =  -1.3482054599570E-05
(PID.TID 0000.0001) %MON dynstat_wvel_mean            =   5.4166806265531E-22
(PID.TID 0000.0001) %MON dynstat_wvel_sd              =   4.0457920613244E-06
(PID.TID 0000.0001) %MON dynstat_wvel_del2            =   3.6017506484587E-08
(PID.TID 0000.0001) %MON dynstat_theta_max            =   1.9991303607750E+01
(PID.TID 0000.0001) %MON dynstat_theta_min            =   6.0022432365260E+00
(PID.TID 0000.0001) %MON dynstat_theta_mean           =   1.1000000096081E+01
(PID.TID 0000.0001) %MON dynstat_theta_sd             =   5.3789163046321E+00
(PID.TID 0000.0001) %MON dynstat_theta_del2           =   9.9673230744166E-06
(PID.TID 0000.0001) %MON dynstat_salt_max             =   1.0000000000000E+01
(PID.TID 0000.0001) %MON dynstat_salt_min             =   1.0000000000000E+01
(PID.TID 0000.0001) %MON dynstat_salt_mean            =   1.0000000000000E+01
(PID.TID 0000.0001) %MON dynstat_salt_sd              =   0.0000000000000E+00
(PID.TID 0000.0001) %MON dynstat_salt_del2            =   0.0000000000000E+00
(PID.TID 0000.0001) %MON extforcing_qnet_max          =   0.0000000000000E+00
(PID.TID 0000.0001) %MON extforcing_qnet_min          =   0.0000000000000E+00
(PID.TID 0000.0001) %MON extforcing_qnet_mean         =   0.0000000000000E+00
(PID.TID 0000.0001) %MON extforcing_qnet_sd           =   0.0000000000000E+00
(PID.TID 0000.0001) %MON extforcing_qsw_max           =   0.0000000000000E+00
(PID.TID 0000.0001) %MON extforcing_qsw_min           =   0.0000000000000E+00
(PID.TID 0000.0001) %MON extforcing_qsw_mean          =   0.0000000000000E+00
(PID.TID 0000.0001) %MON extforcing_qsw_sd            =   0.0000000000000E+00
(PID.TID 0000.0001) %MON extforcing_empmr_max         =   0.0000000000000E+00
(PID.TID 0000.0001) %MON extforcing_empmr_min         =   0.0000000000000E+00
(PID.TID 0000.0001) %MON extforcing_empmr_mean        =   0.0000000000000E+00
(PID.TID 0000.0001) %MON extforcing_empmr_sd          =   0.0000000000000E+00
(PID.TID 0000.0001) %MON advcfl_uvel_max              =   1.1504864609146E-04
(PID.TID 0000.0001) %MON advcfl_vvel_max              =   1.1505737739657E-04
(PID.TID 0000.0001) %MON advcfl_wvel_max              =   6.4713865151682E-05
(PID.TID 0000.0001) %MON advcfl_W_hf_max              =   2.4279749364214E-05
(PID.TID 0000.0001) %MON pe_b_mean                    =  -1.1149907995091E-04
(PID.TID 0000.0001) %MON ke_max                       =   4.6120739174500E-05
(PID.TID 0000.0001) %MON ke_mean                      =   1.5440513355233E-05
(PID.TID 0000.0001) %MON ke_vol                       =   5.6340000000000E+16
(PID.TID 0000.0001) %MON vort_r_min                   =  -4.2957938353996E-08
(PID.TID 0000.0001) %MON vort_r_max                   =   4.2953547594557E-08
(PID.TID 0000.0001) %MON vort_a_mean                  =   9.9999997473787E-05
(PID.TID 0000.0001) %MON vort_a_sd                    =   1.1993272790477E-08
(PID.TID 0000.0001) %MON vort_p_mean                  =   1.0398839476244E-04
(PID.TID 0000.0001) %MON vort_p_sd                    =   3.0798699040476E-05
(PID.TID 0000.0001) %MON surfExpan_theta_mean         =   8.2073443228360E-09
(PID.TID 0000.0001) %MON surfExpan_salt_mean          =  -3.1738362500208E-21
(PID.TID 0000.0001) // =======================================================
(PID.TID 0000.0001) // End MONITOR dynamic field statistics
(PID.TID 0000.0001) // =======================================================
 cg2d: Sum(rhs),rhsMax =   2.16715534406831E-13  1.84797479744467E+00
(PID.TID 0000.0001)                    cg2d_init_res =    1.13092034306149E+00
(PID.TID 0000.0001)                       cg2d_iters =    33
(PID.TID 0000.0001)                         cg2d_res =    5.39212862596465E-14
(PID.TID 0000.0001) // =======================================================
(PID.TID 0000.0001) // Begin MONITOR dynamic field statistics
(PID.TID 0000.0001) // =======================================================
(PID.TID 0000.0001) %MON time_tsnumber                =                    27
(PID.TID 0000.0001) %MON time_secondsf                =   3.2400000000000E+04
(PID.TID 0000.0001) %MON dynstat_eta_max              =   4.7180747846913E-01
(PID.TID 0000.0001) %MON dynstat_eta_min              =  -4.7182213690131E-01
(PID.TID 0000.0001) %MON dynstat_eta_mean             =  -5.4080139375506E-18
(PID.TID 0000.0001) %MON dynstat_eta_sd               =   2.0793030475036E-01
(PID.TID 0000.0001) %MON dynstat_eta_del2             =   2.0849472766877E-03
(PID.TID 0000.0001) %MON dynstat_uvel_max             =   9.3545119347464E-03
(PID.TID 0000.0001) %MON dynstat_uvel_min             =  -9.3545119347464E-03
(PID.TID 0000.0001) %MON dynstat_uvel_mean            =  -2.1245014868745E-19
(PID.TID 0000.0001) %MON dynstat_uvel_sd              =   3.9142214708155E-03
(PID.TID 0000.0001) %MON dynstat_uvel_del2            =   4.8221325020200E-05
(PID.TID 0000.0001) %MON dynstat_vvel_max             =   9.3551990168652E-03
(PID.TID 0000.0001) %MON dynstat_vvel_min             =  -9.3551990168651E-03
(PID.TID 0000.0001) %MON dynstat_vvel_mean            =   8.6197221785170E-19
(PID.TID 0000.0001) %MON dynstat_vvel_sd              =   3.9142982500209E-03
(PID.TID 0000.0001) %MON dynstat_vvel_del2            =   4.8222400371937E-05
(PID.TID 0000.0001) %MON dynstat_wvel_max             =   1.8760696292849E-05
(PID.TID 0000.0001) %MON dynstat_wvel_min             =  -1.8761687683247E-05
(PID.TID 0000.0001) %MON dynstat_wvel_mean            =   9.2857382169481E-22
(PID.TID 0000.0001) %MON dynstat_wvel_sd              =   5.2847063728292E-06
(PID.TID 0000.0001) %MON dynstat_wvel_del2            =   4.9836872066421E-08
(PID.TID 0000.0001) %MON dynstat_theta_max            =   1.9990669858699E+01
(PID.TID 0000.0001) %MON dynstat_theta_min            =   6.0023493861095E+00
(PID.TID 0000.0001) %MON dynstat_theta_mean           =   1.1000000089104E+01
(PID.TID 0000.0001) %MON dynstat_theta_sd             =   5.3786762994845E+00
(PID.TID 0000.0001) %MON dynstat_theta_del2           =   9.6209695916497E-06
(PID.TID 0000.0001) %MON dynstat_salt_max             =   1.0000000000000E+01
(PID.TID 0000.0001) %MON dynstat_salt_min             =   1.0000000000000E+01
(PID.TID 0000.0001) %MON dynstat_salt_mean            =   1.0000000000000E+01
(PID.TID 0000.0001) %MON dynstat_salt_sd              =   0.0000000000000E+00
(PID.TID 0000.0001) %MON dynstat_salt_del2            =   0.0000000000000E+00
(PID.TID 0000.0001) %MON extforcing_qnet_max          =   0.0000000000000E+00
(PID.TID 0000.0001) %MON extforcing_qnet_min          =   0.0000000000000E+00
(PID.TID 0000.0001) %MON extforcing_qnet_mean         =   0.0000000000000E+00
(PID.TID 0000.0001) %MON extforcing_qnet_sd           =   0.0000000000000E+00
(PID.TID 0000.0001) %MON extforcing_qsw_max           =   0.0000000000000E+00
(PID.TID 0000.0001) %MON extforcing_qsw_min           =   0.0000000000000E+00
(PID.TID 0000.0001) %MON extforcing_qsw_mean          =   0.0000000000000E+00
(PID.TID 0000.0001) %MON extforcing_qsw_sd            =   0.0000000000000E+00
(PID.TID 0000.0001) %MON extforcing_empmr_max         =   0.0000000000000E+00
(PID.TID 0000.0001) %MON extforcing_empmr_min         =   0.0000000000000E+00
(PID.TID 0000.0001) %MON extforcing_empmr_mean        =   0.0000000000000E+00
(PID.TID 0000.0001) %MON extforcing_empmr_sd          =   0.0000000000000E+00
(PID.TID 0000.0001) %MON advcfl_uvel_max              =   1.1225414038118E-04
(PID.TID 0000.0001) %MON advcfl_vvel_max              =   1.1226238536640E-04
(PID.TID 0000.0001) %MON advcfl_wvel_max              =   9.0056105157021E-05
(PID.TID 0000.0001) %MON advcfl_W_hf_max              =   3.3762108089306E-05
(PID.TID 0000.0001) %MON pe_b_mean                    =  -1.1144931591762E-04
(PID.TID 0000.0001) %MON ke_max                       =   4.5366033762258E-05
(PID.TID 0000.0001) %MON ke_mean                      =   1.5000534131000E-05
(PID.TID 0000.0001) %MON ke_vol                       =   5.6340000000000E+16
(PID.TID 0000.0001) %MON vort_r_min                   =  -4.3563204676410E-08
(PID.TID 0000.0001) %MON vort_r_max                   =   4.3558246803585E-08
(PID.TID 0000.0001) %MON vort_a_mean                  =   9.9999997473787E-05
(PID.TID 0000.0001) %MON vort_a_sd                    =   1.1492545130748E-08
(PID.TID 0000.0001) %MON vort_p_mean                  =   1.0398839476244E-04
(PID.TID 0000.0001) %MON vort_p_sd                    =   3.0798698712020E-05
(PID.TID 0000.0001) %MON surfExpan_theta_mean         =   1.1613964426304E-08
(PID.TID 0000.0001) %MON surfExpan_salt_mean          =  -3.0680417083534E-20
(PID.TID 0000.0001) // =======================================================
(PID.TID 0000.0001) // End MONITOR dynamic field statistics
(PID.TID 0000.0001) // =======================================================
 cg2d: Sum(rhs),rhsMax =   1.77635683940025E-14  1.75241710630202E+00
(PID.TID 0000.0001)                    cg2d_init_res =    1.32875046224727E+00
(PID.TID 0000.0001)                       cg2d_iters =    33
(PID.TID 0000.0001)                         cg2d_res =    7.15854352254105E-14
(PID.TID 0000.0001) // =======================================================
(PID.TID 0000.0001) // Begin MONITOR dynamic field statistics
(PID.TID 0000.0001) // =======================================================
(PID.TID 0000.0001) %MON time_tsnumber                =                    28
(PID.TID 0000.0001) %MON time_secondsf                =   3.3600000000000E+04
(PID.TID 0000.0001) %MON dynstat_eta_max              =   4.4771098516332E-01
(PID.TID 0000.0001) %MON dynstat_eta_min              =  -4.4772525587570E-01
(PID.TID 0000.0001) %MON dynstat_eta_mean             =   1.8304047173248E-17
(PID.TID 0000.0001) %MON dynstat_eta_sd               =   1.9795636433146E-01
(PID.TID 0000.0001) %MON dynstat_eta_del2             =   1.9872806408718E-03
(PID.TID 0000.0001) %MON dynstat_uvel_max             =   8.8828490038559E-03
(PID.TID 0000.0001) %MON dynstat_uvel_min             =  -8.8828490038559E-03
(PID.TID 0000.0001) %MON dynstat_uvel_mean            =   6.5505462511965E-19
(PID.TID 0000.0001) %MON dynstat_uvel_sd              =   3.7864790254372E-03
(PID.TID 0000.0001) %MON dynstat_uvel_del2            =   4.7280497961595E-05
(PID.TID 0000.0001) %MON dynstat_vvel_max             =   8.8834729445296E-03
(PID.TID 0000.0001) %MON dynstat_vvel_min             =  -8.8834729445296E-03
(PID.TID 0000.0001) %MON dynstat_vvel_mean            =   3.0097104397389E-19
(PID.TID 0000.0001) %MON dynstat_vvel_sd              =   3.7865730122097E-03
(PID.TID 0000.0001) %MON dynstat_vvel_del2            =   4.7281736083154E-05
(PID.TID 0000.0001) %MON dynstat_wvel_max             =   2.0964758598938E-05
(PID.TID 0000.0001) %MON dynstat_wvel_min             =  -2.0964398328039E-05
(PID.TID 0000.0001) %MON dynstat_wvel_mean            =  -3.0952460723160E-22
(PID.TID 0000.0001) %MON dynstat_wvel_sd              =   5.8473941256515E-06
(PID.TID 0000.0001) %MON dynstat_wvel_del2            =   5.6337895987976E-08
(PID.TID 0000.0001) %MON dynstat_theta_max            =   1.9990002004915E+01
(PID.TID 0000.0001) %MON dynstat_theta_min            =   6.0024578034063E+00
(PID.TID 0000.0001) %MON dynstat_theta_mean           =   1.1000000080910E+01
(PID.TID 0000.0001) %MON dynstat_theta_sd             =   5.3784363173236E+00
(PID.TID 0000.0001) %MON dynstat_theta_del2           =   9.1797894339059E-06
(PID.TID 0000.0001) %MON dynstat_salt_max             =   1.0000000000000E+01
(PID.TID 0000.0001) %MON dynstat_salt_min             =   1.0000000000000E+01
(PID.TID 0000.0001) %MON dynstat_salt_mean            =   1.0000000000000E+01
(PID.TID 0000.0001) %MON dynstat_salt_sd              =   0.0000000000000E+00
(PID.TID 0000.0001) %MON dynstat_salt_del2            =   0.0000000000000E+00
(PID.TID 0000.0001) %MON extforcing_qnet_max          =   0.0000000000000E+00
(PID.TID 0000.0001) %MON extforcing_qnet_min          =   0.0000000000000E+00
(PID.TID 0000.0001) %MON extforcing_qnet_mean         =   0.0000000000000E+00
(PID.TID 0000.0001) %MON extforcing_qnet_sd           =   0.0000000000000E+00
(PID.TID 0000.0001) %MON extforcing_qsw_max           =   0.0000000000000E+00
(PID.TID 0000.0001) %MON extforcing_qsw_min           =   0.0000000000000E+00
(PID.TID 0000.0001) %MON extforcing_qsw_mean          =   0.0000000000000E+00
(PID.TID 0000.0001) %MON extforcing_qsw_sd            =   0.0000000000000E+00
(PID.TID 0000.0001) %MON extforcing_empmr_max         =   0.0000000000000E+00
(PID.TID 0000.0001) %MON extforcing_empmr_min         =   0.0000000000000E+00
(PID.TID 0000.0001) %MON extforcing_empmr_mean        =   0.0000000000000E+00
(PID.TID 0000.0001) %MON extforcing_empmr_sd          =   0.0000000000000E+00
(PID.TID 0000.0001) %MON advcfl_uvel_max              =   1.0659418535348E-04
(PID.TID 0000.0001) %MON advcfl_vvel_max              =   1.0660167264137E-04
(PID.TID 0000.0001) %MON advcfl_wvel_max              =   1.0063084605461E-04
(PID.TID 0000.0001) %MON advcfl_W_hf_max              =   3.7705168913299E-05
(PID.TID 0000.0001) %MON pe_b_mean                    =  -1.1090513768426E-04
(PID.TID 0000.0001) %MON ke_max                       =   4.2726290051068E-05
(PID.TID 0000.0001) %MON ke_mean                      =   1.4037485016434E-05
(PID.TID 0000.0001) %MON ke_vol                       =   5.6340000000000E+16
(PID.TID 0000.0001) %MON vort_r_min                   =  -4.1849911576655E-08
(PID.TID 0000.0001) %MON vort_r_max                   =   4.1843866275545E-08
(PID.TID 0000.0001) %MON vort_a_mean                  =   9.9999997473787E-05
(PID.TID 0000.0001) %MON vort_a_sd                    =   1.0894721665269E-08
(PID.TID 0000.0001) %MON vort_p_mean                  =   1.0398839476244E-04
(PID.TID 0000.0001) %MON vort_p_sd                    =   3.0798698341373E-05
(PID.TID 0000.0001) %MON surfExpan_theta_mean         =   1.2554373520204E-08
(PID.TID 0000.0001) %MON surfExpan_salt_mean          =  -2.1158908333472E-21
(PID.TID 0000.0001) // =======================================================
(PID.TID 0000.0001) // End MONITOR dynamic field statistics
(PID.TID 0000.0001) // =======================================================
 cg2d: Sum(rhs),rhsMax =  -2.87769807982841E-13  1.66062977776788E+00
(PID.TID 0000.0001)                    cg2d_init_res =    1.35332629064696E+00
(PID.TID 0000.0001)                       cg2d_iters =    33
(PID.TID 0000.0001)                         cg2d_res =    8.40184548420384E-14
(PID.TID 0000.0001) // =======================================================
(PID.TID 0000.0001) // Begin MONITOR dynamic field statistics
(PID.TID 0000.0001) // =======================================================
(PID.TID 0000.0001) %MON time_tsnumber                =                    29
(PID.TID 0000.0001) %MON time_secondsf                =   3.4800000000000E+04
(PID.TID 0000.0001) %MON dynstat_eta_max              =   4.2460429047839E-01
(PID.TID 0000.0001) %MON dynstat_eta_min              =  -4.2461719977768E-01
(PID.TID 0000.0001) %MON dynstat_eta_mean             =   3.9936102923450E-17
(PID.TID 0000.0001) %MON dynstat_eta_sd               =   1.8835648166873E-01
(PID.TID 0000.0001) %MON dynstat_eta_del2             =   1.8921051407971E-03
(PID.TID 0000.0001) %MON dynstat_uvel_max             =   8.2435735470519E-03
(PID.TID 0000.0001) %MON dynstat_uvel_min             =  -8.2435735470519E-03
(PID.TID 0000.0001) %MON dynstat_uvel_mean            =   7.0816716229152E-20
(PID.TID 0000.0001) %MON dynstat_uvel_sd              =   3.5824844750378E-03
(PID.TID 0000.0001) %MON dynstat_uvel_del2            =   4.5105149772913E-05
(PID.TID 0000.0001) %MON dynstat_vvel_max             =   8.2441173885964E-03
(PID.TID 0000.0001) %MON dynstat_vvel_min             =  -8.2441173885964E-03
(PID.TID 0000.0001) %MON dynstat_vvel_mean            =   6.5505462511965E-19
(PID.TID 0000.0001) %MON dynstat_vvel_sd              =   3.5825811964301E-03
(PID.TID 0000.0001) %MON dynstat_vvel_del2            =   4.5106679119655E-05
(PID.TID 0000.0001) %MON dynstat_wvel_max             =   2.0023346013084E-05
(PID.TID 0000.0001) %MON dynstat_wvel_min             =  -2.0022099985407E-05
(PID.TID 0000.0001) %MON dynstat_wvel_mean            =  -2.8631026168923E-21
(PID.TID 0000.0001) %MON dynstat_wvel_sd              =   5.6262364518588E-06
(PID.TID 0000.0001) %MON dynstat_wvel_del2            =   5.4923295348138E-08
(PID.TID 0000.0001) %MON dynstat_theta_max            =   1.9989330860789E+01
(PID.TID 0000.0001) %MON dynstat_theta_min            =   6.0025664326622E+00
(PID.TID 0000.0001) %MON dynstat_theta_mean           =   1.1000000073038E+01
(PID.TID 0000.0001) %MON dynstat_theta_sd             =   5.3781963606144E+00
(PID.TID 0000.0001) %MON dynstat_theta_del2           =   8.7215497325587E-06
(PID.TID 0000.0001) %MON dynstat_salt_max             =   1.0000000000000E+01
(PID.TID 0000.0001) %MON dynstat_salt_min             =   1.0000000000000E+01
(PID.TID 0000.0001) %MON dynstat_salt_mean            =   1.0000000000000E+01
(PID.TID 0000.0001) %MON dynstat_salt_sd              =   0.0000000000000E+00
(PID.TID 0000.0001) %MON dynstat_salt_del2            =   0.0000000000000E+00
(PID.TID 0000.0001) %MON extforcing_qnet_max          =   0.0000000000000E+00
(PID.TID 0000.0001) %MON extforcing_qnet_min          =   0.0000000000000E+00
(PID.TID 0000.0001) %MON extforcing_qnet_mean         =   0.0000000000000E+00
(PID.TID 0000.0001) %MON extforcing_qnet_sd           =   0.0000000000000E+00
(PID.TID 0000.0001) %MON extforcing_qsw_max           =   0.0000000000000E+00
(PID.TID 0000.0001) %MON extforcing_qsw_min           =   0.0000000000000E+00
(PID.TID 0000.0001) %MON extforcing_qsw_mean          =   0.0000000000000E+00
(PID.TID 0000.0001) %MON extforcing_qsw_sd            =   0.0000000000000E+00
(PID.TID 0000.0001) %MON extforcing_empmr_max         =   0.0000000000000E+00
(PID.TID 0000.0001) %MON extforcing_empmr_min         =   0.0000000000000E+00
(PID.TID 0000.0001) %MON extforcing_empmr_mean        =   0.0000000000000E+00
(PID.TID 0000.0001) %MON extforcing_empmr_sd          =   0.0000000000000E+00
(PID.TID 0000.0001) %MON advcfl_uvel_max              =   9.8922880065621E-05
(PID.TID 0000.0001) %MON advcfl_vvel_max              =   9.8929406163990E-05
(PID.TID 0000.0001) %MON advcfl_wvel_max              =   9.6112065427883E-05
(PID.TID 0000.0001) %MON advcfl_W_hf_max              =   3.5986543376830E-05
(PID.TID 0000.0001) %MON pe_b_mean                    =  -1.0987218570548E-04
(PID.TID 0000.0001) %MON ke_max                       =   3.8016077049212E-05
(PID.TID 0000.0001) %MON ke_mean                      =   1.2565731457636E-05
(PID.TID 0000.0001) %MON ke_vol                       =   5.6340000000000E+16
(PID.TID 0000.0001) %MON vort_r_min                   =  -3.8102325659059E-08
(PID.TID 0000.0001) %MON vort_r_max                   =   3.8094986695745E-08
(PID.TID 0000.0001) %MON vort_a_mean                  =   9.9999997473788E-05
(PID.TID 0000.0001) %MON vort_a_sd                    =   1.0257560671690E-08
(PID.TID 0000.0001) %MON vort_p_mean                  =   1.0398839476244E-04
(PID.TID 0000.0001) %MON vort_p_sd                    =   3.0798697961409E-05
(PID.TID 0000.0001) %MON surfExpan_theta_mean         =   1.1438561815698E-08
(PID.TID 0000.0001) %MON surfExpan_salt_mean          =  -1.0579454166736E-20
(PID.TID 0000.0001) // =======================================================
(PID.TID 0000.0001) // End MONITOR dynamic field statistics
(PID.TID 0000.0001) // =======================================================
 cg2d: Sum(rhs),rhsMax =  -3.69482222595252E-13  1.58683194260849E+00
(PID.TID 0000.0001)                    cg2d_init_res =    1.18810775811534E+00
(PID.TID 0000.0001)                       cg2d_iters =    33
(PID.TID 0000.0001)                         cg2d_res =    8.60630380696935E-14
(PID.TID 0000.0001) // =======================================================
(PID.TID 0000.0001) // Begin MONITOR dynamic field statistics
(PID.TID 0000.0001) // =======================================================
(PID.TID 0000.0001) %MON time_tsnumber                =                    30
(PID.TID 0000.0001) %MON time_secondsf                =   3.6000000000000E+04
(PID.TID 0000.0001) %MON dynstat_eta_max              =   4.0588260947090E-01
(PID.TID 0000.0001) %MON dynstat_eta_min              =  -4.0589439212393E-01
(PID.TID 0000.0001) %MON dynstat_eta_mean             =   9.8730921116308E-17
(PID.TID 0000.0001) %MON dynstat_eta_sd               =   1.8044997660752E-01
(PID.TID 0000.0001) %MON dynstat_eta_del2             =   1.8121374183035E-03
(PID.TID 0000.0001) %MON dynstat_uvel_max             =   7.5340768693448E-03
(PID.TID 0000.0001) %MON dynstat_uvel_min             =  -7.5340768693448E-03
(PID.TID 0000.0001) %MON dynstat_uvel_mean            =   5.3112537171864E-20
(PID.TID 0000.0001) %MON dynstat_uvel_sd              =   3.3343634443870E-03
(PID.TID 0000.0001) %MON dynstat_uvel_del2            =   4.2031929866513E-05
(PID.TID 0000.0001) %MON dynstat_vvel_max             =   7.5343874084586E-03
(PID.TID 0000.0001) %MON dynstat_vvel_min             =  -7.5343874084586E-03
(PID.TID 0000.0001) %MON dynstat_vvel_mean            =   3.5408358114576E-19
(PID.TID 0000.0001) %MON dynstat_vvel_sd              =   3.3344503036108E-03
(PID.TID 0000.0001) %MON dynstat_vvel_del2            =   4.2033710019208E-05
(PID.TID 0000.0001) %MON dynstat_wvel_max             =   1.6421984730629E-05
(PID.TID 0000.0001) %MON dynstat_wvel_min             =  -1.6420928646102E-05
(PID.TID 0000.0001) %MON dynstat_wvel_mean            =   1.1607172771185E-22
(PID.TID 0000.0001) %MON dynstat_wvel_sd              =   4.7136655584366E-06
(PID.TID 0000.0001) %MON dynstat_wvel_del2            =   4.6622674632523E-08
(PID.TID 0000.0001) %MON dynstat_theta_max            =   1.9988684639175E+01
(PID.TID 0000.0001) %MON dynstat_theta_min            =   6.0026733923202E+00
(PID.TID 0000.0001) %MON dynstat_theta_mean           =   1.1000000066577E+01
(PID.TID 0000.0001) %MON dynstat_theta_sd             =   5.3779564311619E+00
(PID.TID 0000.0001) %MON dynstat_theta_del2           =   8.3160011866717E-06
(PID.TID 0000.0001) %MON dynstat_salt_max             =   1.0000000000000E+01
(PID.TID 0000.0001) %MON dynstat_salt_min             =   1.0000000000000E+01
(PID.TID 0000.0001) %MON dynstat_salt_mean            =   1.0000000000000E+01
(PID.TID 0000.0001) %MON dynstat_salt_sd              =   0.0000000000000E+00
(PID.TID 0000.0001) %MON dynstat_salt_del2            =   0.0000000000000E+00
(PID.TID 0000.0001) %MON extforcing_qnet_max          =   0.0000000000000E+00
(PID.TID 0000.0001) %MON extforcing_qnet_min          =   0.0000000000000E+00
(PID.TID 0000.0001) %MON extforcing_qnet_mean         =   0.0000000000000E+00
(PID.TID 0000.0001) %MON extforcing_qnet_sd           =   0.0000000000000E+00
(PID.TID 0000.0001) %MON extforcing_qsw_max           =   0.0000000000000E+00
(PID.TID 0000.0001) %MON extforcing_qsw_min           =   0.0000000000000E+00
(PID.TID 0000.0001) %MON extforcing_qsw_mean          =   0.0000000000000E+00
(PID.TID 0000.0001) %MON extforcing_qsw_sd            =   0.0000000000000E+00
(PID.TID 0000.0001) %MON extforcing_empmr_max         =   0.0000000000000E+00
(PID.TID 0000.0001) %MON extforcing_empmr_min         =   0.0000000000000E+00
(PID.TID 0000.0001) %MON extforcing_empmr_mean        =   0.0000000000000E+00
(PID.TID 0000.0001) %MON extforcing_empmr_sd          =   0.0000000000000E+00
(PID.TID 0000.0001) %MON advcfl_uvel_max              =   9.0408920148216E-05
(PID.TID 0000.0001) %MON advcfl_vvel_max              =   9.0412646617488E-05
(PID.TID 0000.0001) %MON advcfl_wvel_max              =   7.8825530451028E-05
(PID.TID 0000.0001) %MON advcfl_W_hf_max              =   2.9481852798137E-05
(PID.TID 0000.0001) %MON pe_b_mean                    =  -1.0863383464579E-04
(PID.TID 0000.0001) %MON ke_max                       =   3.2019670015910E-05
(PID.TID 0000.0001) %MON ke_mean                      =   1.0885405205035E-05
(PID.TID 0000.0001) %MON ke_vol                       =   5.6340000000000E+16
(PID.TID 0000.0001) %MON vort_r_min                   =  -3.2794630966595E-08
(PID.TID 0000.0001) %MON vort_r_max                   =   3.2786059306609E-08
(PID.TID 0000.0001) %MON vort_a_mean                  =   9.9999997473788E-05
(PID.TID 0000.0001) %MON vort_a_sd                    =   9.6476751008194E-09
(PID.TID 0000.0001) %MON vort_p_mean                  =   1.0398839476244E-04
(PID.TID 0000.0001) %MON vort_p_sd                    =   3.0798697607487E-05
(PID.TID 0000.0001) %MON surfExpan_theta_mean         =   8.9537048154830E-09
(PID.TID 0000.0001) %MON surfExpan_salt_mean          =  -2.1158908333472E-20
(PID.TID 0000.0001) // =======================================================
(PID.TID 0000.0001) // End MONITOR dynamic field statistics
(PID.TID 0000.0001) // =======================================================
 cg2d: Sum(rhs),rhsMax =  -7.60280727263307E-13  1.53793039646370E+00
(PID.TID 0000.0001)                    cg2d_init_res =    8.62556637237654E-01
(PID.TID 0000.0001)                       cg2d_iters =    33
(PID.TID 0000.0001)                         cg2d_res =    7.55305460922649E-14
(PID.TID 0000.0001) // =======================================================
(PID.TID 0000.0001) // Begin MONITOR dynamic field statistics
(PID.TID 0000.0001) // =======================================================
(PID.TID 0000.0001) %MON time_tsnumber                =                    31
(PID.TID 0000.0001) %MON time_secondsf                =   3.7200000000000E+04
(PID.TID 0000.0001) %MON dynstat_eta_max              =   3.9366826022836E-01
(PID.TID 0000.0001) %MON dynstat_eta_min              =  -3.9367836902306E-01
(PID.TID 0000.0001) %MON dynstat_eta_mean             =   1.4976038596294E-16
(PID.TID 0000.0001) %MON dynstat_eta_sd               =   1.7514174889195E-01
(PID.TID 0000.0001) %MON dynstat_eta_del2             =   1.7563942445869E-03
(PID.TID 0000.0001) %MON dynstat_uvel_max             =   6.8313691132181E-03
(PID.TID 0000.0001) %MON dynstat_uvel_min             =  -6.8313691132181E-03
(PID.TID 0000.0001) %MON dynstat_uvel_mean            =   1.0622507434373E-18
(PID.TID 0000.0001) %MON dynstat_uvel_sd              =   3.1031420462845E-03
(PID.TID 0000.0001) %MON dynstat_uvel_del2            =   3.8840340458015E-05
(PID.TID 0000.0001) %MON dynstat_vvel_max             =   6.8316029767063E-03
(PID.TID 0000.0001) %MON dynstat_vvel_min             =  -6.8316029767063E-03
(PID.TID 0000.0001) %MON dynstat_vvel_mean            =   5.6653372983321E-19
(PID.TID 0000.0001) %MON dynstat_vvel_sd              =   3.1032132838212E-03
(PID.TID 0000.0001) %MON dynstat_vvel_del2            =   3.8841294513080E-05
(PID.TID 0000.0001) %MON dynstat_wvel_max             =   1.0973182985246E-05
(PID.TID 0000.0001) %MON dynstat_wvel_min             =  -1.0972409157503E-05
(PID.TID 0000.0001) %MON dynstat_wvel_mean            =  -4.6428691084741E-22
(PID.TID 0000.0001) %MON dynstat_wvel_sd              =   3.3187750094943E-06
(PID.TID 0000.0001) %MON dynstat_wvel_del2            =   3.3454275625692E-08
(PID.TID 0000.0001) %MON dynstat_theta_max            =   1.9988086895452E+01
(PID.TID 0000.0001) %MON dynstat_theta_min            =   6.0027771088968E+00
(PID.TID 0000.0001) %MON dynstat_theta_mean           =   1.1000000062099E+01
(PID.TID 0000.0001) %MON dynstat_theta_sd             =   5.3777165299953E+00
(PID.TID 0000.0001) %MON dynstat_theta_del2           =   8.0154493110652E-06
(PID.TID 0000.0001) %MON dynstat_salt_max             =   1.0000000000000E+01
(PID.TID 0000.0001) %MON dynstat_salt_min             =   1.0000000000000E+01
(PID.TID 0000.0001) %MON dynstat_salt_mean            =   1.0000000000000E+01
(PID.TID 0000.0001) %MON dynstat_salt_sd              =   0.0000000000000E+00
(PID.TID 0000.0001) %MON dynstat_salt_del2            =   0.0000000000000E+00
(PID.TID 0000.0001) %MON extforcing_qnet_max          =   0.0000000000000E+00
(PID.TID 0000.0001) %MON extforcing_qnet_min          =   0.0000000000000E+00
(PID.TID 0000.0001) %MON extforcing_qnet_mean         =   0.0000000000000E+00
(PID.TID 0000.0001) %MON extforcing_qnet_sd           =   0.0000000000000E+00
(PID.TID 0000.0001) %MON extforcing_qsw_max           =   0.0000000000000E+00
(PID.TID 0000.0001) %MON extforcing_qsw_min           =   0.0000000000000E+00
(PID.TID 0000.0001) %MON extforcing_qsw_mean          =   0.0000000000000E+00
(PID.TID 0000.0001) %MON extforcing_qsw_sd            =   0.0000000000000E+00
(PID.TID 0000.0001) %MON extforcing_empmr_max         =   0.0000000000000E+00
(PID.TID 0000.0001) %MON extforcing_empmr_min         =   0.0000000000000E+00
(PID.TID 0000.0001) %MON extforcing_empmr_mean        =   0.0000000000000E+00
(PID.TID 0000.0001) %MON extforcing_empmr_sd          =   0.0000000000000E+00
(PID.TID 0000.0001) %MON advcfl_uvel_max              =   8.1976427287719E-05
(PID.TID 0000.0001) %MON advcfl_vvel_max              =   8.1979233649506E-05
(PID.TID 0000.0001) %MON advcfl_wvel_max              =   5.2671280830933E-05
(PID.TID 0000.0001) %MON advcfl_W_hf_max              =   1.9649632563939E-05
(PID.TID 0000.0001) %MON pe_b_mean                    =  -1.0760104293691E-04
(PID.TID 0000.0001) %MON ke_max                       =   2.5687991429816E-05
(PID.TID 0000.0001) %MON ke_mean                      =   9.4280243712794E-06
(PID.TID 0000.0001) %MON ke_vol                       =   5.6340000000000E+16
(PID.TID 0000.0001) %MON vort_r_min                   =  -2.6506887724784E-08
(PID.TID 0000.0001) %MON vort_r_max                   =   2.6497308798980E-08
(PID.TID 0000.0001) %MON vort_a_mean                  =   9.9999997473788E-05
(PID.TID 0000.0001) %MON vort_a_sd                    =   9.1353776880434E-09
(PID.TID 0000.0001) %MON vort_p_mean                  =   1.0398839476244E-04
(PID.TID 0000.0001) %MON vort_p_sd                    =   3.0798697312782E-05
(PID.TID 0000.0001) %MON surfExpan_theta_mean         =   5.7791857897939E-09
(PID.TID 0000.0001) %MON surfExpan_salt_mean          =  -3.7028089583576E-21
(PID.TID 0000.0001) // =======================================================
(PID.TID 0000.0001) // End MONITOR dynamic field statistics
(PID.TID 0000.0001) // =======================================================
 cg2d: Sum(rhs),rhsMax =  -8.02913291408913E-13  1.51758055880829E+00
(PID.TID 0000.0001)                    cg2d_init_res =    4.58225394029020E-01
(PID.TID 0000.0001)                       cg2d_iters =    33
(PID.TID 0000.0001)                         cg2d_res =    5.87052881549197E-14
(PID.TID 0000.0001) // =======================================================
(PID.TID 0000.0001) // Begin MONITOR dynamic field statistics
(PID.TID 0000.0001) // =======================================================
(PID.TID 0000.0001) %MON time_tsnumber                =                    32
(PID.TID 0000.0001) %MON time_secondsf                =   3.8400000000000E+04
(PID.TID 0000.0001) %MON dynstat_eta_max              =   3.8868167727398E-01
(PID.TID 0000.0001) %MON dynstat_eta_min              =  -3.8869075625738E-01
(PID.TID 0000.0001) %MON dynstat_eta_mean             =   1.6972843742466E-16
(PID.TID 0000.0001) %MON dynstat_eta_sd               =   1.7285609194592E-01
(PID.TID 0000.0001) %MON dynstat_eta_del2             =   1.7298832758668E-03
(PID.TID 0000.0001) %MON dynstat_uvel_max             =   6.1897499154460E-03
(PID.TID 0000.0001) %MON dynstat_uvel_min             =  -6.1897499154460E-03
(PID.TID 0000.0001) %MON dynstat_uvel_mean            =   1.3632217874112E-18
(PID.TID 0000.0001) %MON dynstat_uvel_sd              =   2.9556710546098E-03
(PID.TID 0000.0001) %MON dynstat_uvel_del2            =   3.6394640963025E-05
(PID.TID 0000.0001) %MON dynstat_vvel_max             =   6.1899556197743E-03
(PID.TID 0000.0001) %MON dynstat_vvel_min             =  -6.1899556197743E-03
(PID.TID 0000.0001) %MON dynstat_vvel_mean            =   5.6653372983321E-19
(PID.TID 0000.0001) %MON dynstat_vvel_sd              =   2.9557318725254E-03
(PID.TID 0000.0001) %MON dynstat_vvel_del2            =   3.6394513397104E-05
(PID.TID 0000.0001) %MON dynstat_wvel_max             =   6.6533412779867E-06
(PID.TID 0000.0001) %MON dynstat_wvel_min             =  -6.6521081057718E-06
(PID.TID 0000.0001) %MON dynstat_wvel_mean            =   9.6726439759876E-23
(PID.TID 0000.0001) %MON dynstat_wvel_sd              =   1.7585964472144E-06
(PID.TID 0000.0001) %MON dynstat_wvel_del2            =   1.8419287811351E-08
(PID.TID 0000.0001) %MON dynstat_theta_max            =   1.9987545194937E+01
(PID.TID 0000.0001) %MON dynstat_theta_min            =   6.0028770790484E+00
(PID.TID 0000.0001) %MON dynstat_theta_mean           =   1.1000000059775E+01
(PID.TID 0000.0001) %MON dynstat_theta_sd             =   5.3774766574914E+00
(PID.TID 0000.0001) %MON dynstat_theta_del2           =   7.8494609315441E-06
(PID.TID 0000.0001) %MON dynstat_salt_max             =   1.0000000000000E+01
(PID.TID 0000.0001) %MON dynstat_salt_min             =   1.0000000000000E+01
(PID.TID 0000.0001) %MON dynstat_salt_mean            =   1.0000000000000E+01
(PID.TID 0000.0001) %MON dynstat_salt_sd              =   0.0000000000000E+00
(PID.TID 0000.0001) %MON dynstat_salt_del2            =   0.0000000000000E+00
(PID.TID 0000.0001) %MON extforcing_qnet_max          =   0.0000000000000E+00
(PID.TID 0000.0001) %MON extforcing_qnet_min          =   0.0000000000000E+00
(PID.TID 0000.0001) %MON extforcing_qnet_mean         =   0.0000000000000E+00
(PID.TID 0000.0001) %MON extforcing_qnet_sd           =   0.0000000000000E+00
(PID.TID 0000.0001) %MON extforcing_qsw_max           =   0.0000000000000E+00
(PID.TID 0000.0001) %MON extforcing_qsw_min           =   0.0000000000000E+00
(PID.TID 0000.0001) %MON extforcing_qsw_mean          =   0.0000000000000E+00
(PID.TID 0000.0001) %MON extforcing_qsw_sd            =   0.0000000000000E+00
(PID.TID 0000.0001) %MON extforcing_empmr_max         =   0.0000000000000E+00
(PID.TID 0000.0001) %MON extforcing_empmr_min         =   0.0000000000000E+00
(PID.TID 0000.0001) %MON extforcing_empmr_mean        =   0.0000000000000E+00
(PID.TID 0000.0001) %MON extforcing_empmr_sd          =   0.0000000000000E+00
(PID.TID 0000.0001) %MON advcfl_uvel_max              =   7.4276997108957E-05
(PID.TID 0000.0001) %MON advcfl_vvel_max              =   7.4279465560834E-05
(PID.TID 0000.0001) %MON advcfl_wvel_max              =   3.1936039651217E-05
(PID.TID 0000.0001) %MON advcfl_W_hf_max              =   1.1630485305377E-05
(PID.TID 0000.0001) %MON pe_b_mean                    =  -1.0711327224920E-04
(PID.TID 0000.0001) %MON ke_max                       =   2.4877742340020E-05
(PID.TID 0000.0001) %MON ke_mean                      =   8.5531984421219E-06
(PID.TID 0000.0001) %MON ke_vol                       =   5.6340000000000E+16
(PID.TID 0000.0001) %MON vort_r_min                   =  -2.4885345134858E-08
(PID.TID 0000.0001) %MON vort_r_max                   =   2.4896101165663E-08
(PID.TID 0000.0001) %MON vort_a_mean                  =   9.9999997473787E-05
(PID.TID 0000.0001) %MON vort_a_sd                    =   8.7821392376724E-09
(PID.TID 0000.0001) %MON vort_p_mean                  =   1.0398839476244E-04
(PID.TID 0000.0001) %MON vort_p_sd                    =   3.0798697101487E-05
(PID.TID 0000.0001) %MON surfExpan_theta_mean         =   2.4312376121384E-09
(PID.TID 0000.0001) %MON surfExpan_salt_mean          =  -8.4635633333888E-21
(PID.TID 0000.0001) // =======================================================
(PID.TID 0000.0001) // End MONITOR dynamic field statistics
(PID.TID 0000.0001) // =======================================================
 cg2d: Sum(rhs),rhsMax =  -9.37916411203332E-13  1.52556218813223E+00
(PID.TID 0000.0001)                    cg2d_init_res =    2.32164820394504E-01
(PID.TID 0000.0001)                       cg2d_iters =    33
(PID.TID 0000.0001)                         cg2d_res =    4.04407358843528E-14
(PID.TID 0000.0001) // =======================================================
(PID.TID 0000.0001) // Begin MONITOR dynamic field statistics
(PID.TID 0000.0001) // =======================================================
(PID.TID 0000.0001) %MON time_tsnumber                =                    33
(PID.TID 0000.0001) %MON time_secondsf                =   3.9600000000000E+04
(PID.TID 0000.0001) %MON dynstat_eta_max              =   3.9085758274109E-01
(PID.TID 0000.0001) %MON dynstat_eta_min              =  -3.9086631817047E-01
(PID.TID 0000.0001) %MON dynstat_eta_mean             =   1.9136049317487E-16
(PID.TID 0000.0001) %MON dynstat_eta_sd               =   1.7355322818045E-01
(PID.TID 0000.0001) %MON dynstat_eta_del2             =   1.7329345711735E-03
(PID.TID 0000.0001) %MON dynstat_uvel_max             =   6.1315113532987E-03
(PID.TID 0000.0001) %MON dynstat_uvel_min             =  -6.1315113532987E-03
(PID.TID 0000.0001) %MON dynstat_uvel_mean            =   7.2587134134880E-19
(PID.TID 0000.0001) %MON dynstat_uvel_sd              =   2.9300329127912E-03
(PID.TID 0000.0001) %MON dynstat_uvel_del2            =   3.5430276352836E-05
(PID.TID 0000.0001) %MON dynstat_vvel_max             =   6.1310684335502E-03
(PID.TID 0000.0001) %MON dynstat_vvel_min             =  -6.1310684335502E-03
(PID.TID 0000.0001) %MON dynstat_vvel_mean            =   9.9143402720812E-19
(PID.TID 0000.0001) %MON dynstat_vvel_sd              =   2.9300977305084E-03
(PID.TID 0000.0001) %MON dynstat_vvel_del2            =   3.5427954446605E-05
(PID.TID 0000.0001) %MON dynstat_wvel_max             =   3.4573917314327E-06
(PID.TID 0000.0001) %MON dynstat_wvel_min             =  -3.4570565426759E-06
(PID.TID 0000.0001) %MON dynstat_wvel_mean            =   5.3199541867932E-23
(PID.TID 0000.0001) %MON dynstat_wvel_sd              =   9.5342414827742E-07
(PID.TID 0000.0001) %MON dynstat_wvel_del2            =   9.4447245143082E-09
(PID.TID 0000.0001) %MON dynstat_theta_max            =   1.9987062864080E+01
(PID.TID 0000.0001) %MON dynstat_theta_min            =   6.0029730849634E+00
(PID.TID 0000.0001) %MON dynstat_theta_mean           =   1.1000000059521E+01
(PID.TID 0000.0001) %MON dynstat_theta_sd             =   5.3772368135764E+00
(PID.TID 0000.0001) %MON dynstat_theta_del2           =   7.8285855141333E-06
(PID.TID 0000.0001) %MON dynstat_salt_max             =   1.0000000000000E+01
(PID.TID 0000.0001) %MON dynstat_salt_min             =   1.0000000000000E+01
(PID.TID 0000.0001) %MON dynstat_salt_mean            =   1.0000000000000E+01
(PID.TID 0000.0001) %MON dynstat_salt_sd              =   0.0000000000000E+00
(PID.TID 0000.0001) %MON dynstat_salt_del2            =   0.0000000000000E+00
(PID.TID 0000.0001) %MON extforcing_qnet_max          =   0.0000000000000E+00
(PID.TID 0000.0001) %MON extforcing_qnet_min          =   0.0000000000000E+00
(PID.TID 0000.0001) %MON extforcing_qnet_mean         =   0.0000000000000E+00
(PID.TID 0000.0001) %MON extforcing_qnet_sd           =   0.0000000000000E+00
(PID.TID 0000.0001) %MON extforcing_qsw_max           =   0.0000000000000E+00
(PID.TID 0000.0001) %MON extforcing_qsw_min           =   0.0000000000000E+00
(PID.TID 0000.0001) %MON extforcing_qsw_mean          =   0.0000000000000E+00
(PID.TID 0000.0001) %MON extforcing_qsw_sd            =   0.0000000000000E+00
(PID.TID 0000.0001) %MON extforcing_empmr_max         =   0.0000000000000E+00
(PID.TID 0000.0001) %MON extforcing_empmr_min         =   0.0000000000000E+00
(PID.TID 0000.0001) %MON extforcing_empmr_mean        =   0.0000000000000E+00
(PID.TID 0000.0001) %MON extforcing_empmr_sd          =   0.0000000000000E+00
(PID.TID 0000.0001) %MON advcfl_uvel_max              =   7.3578134380844E-05
(PID.TID 0000.0001) %MON advcfl_vvel_max              =   7.3572819343997E-05
(PID.TID 0000.0001) %MON advcfl_wvel_max              =   1.6595481099120E-05
(PID.TID 0000.0001) %MON advcfl_W_hf_max              =   5.8747983063647E-06
(PID.TID 0000.0001) %MON pe_b_mean                    =  -1.0729880750264E-04
(PID.TID 0000.0001) %MON ke_max                       =   2.7996728598760E-05
(PID.TID 0000.0001) %MON ke_mean                      =   8.4054703355805E-06
(PID.TID 0000.0001) %MON ke_vol                       =   5.6340000000000E+16
(PID.TID 0000.0001) %MON vort_r_min                   =  -2.3336649964280E-08
(PID.TID 0000.0001) %MON vort_r_max                   =   2.3348763537329E-08
(PID.TID 0000.0001) %MON vort_a_mean                  =   9.9999997473787E-05
(PID.TID 0000.0001) %MON vort_a_sd                    =   8.6234525635160E-09
(PID.TID 0000.0001) %MON vort_p_mean                  =   1.0398839476244E-04
(PID.TID 0000.0001) %MON vort_p_sd                    =   3.0798696983465E-05
(PID.TID 0000.0001) %MON surfExpan_theta_mean         =  -7.4772180435153E-10
(PID.TID 0000.0001) %MON surfExpan_salt_mean          =  -2.5126203645998E-21
(PID.TID 0000.0001) // =======================================================
(PID.TID 0000.0001) // End MONITOR dynamic field statistics
(PID.TID 0000.0001) // =======================================================
 cg2d: Sum(rhs),rhsMax =  -1.10844666778576E-12  1.55778492614001E+00
(PID.TID 0000.0001)                    cg2d_init_res =    4.80563155580909E-01
(PID.TID 0000.0001)                       cg2d_iters =    33
(PID.TID 0000.0001)                         cg2d_res =    3.64788500675638E-14
(PID.TID 0000.0001) // =======================================================
(PID.TID 0000.0001) // Begin MONITOR dynamic field statistics
(PID.TID 0000.0001) // =======================================================
(PID.TID 0000.0001) %MON time_tsnumber                =                    34
(PID.TID 0000.0001) %MON time_secondsf                =   4.0800000000000E+04
(PID.TID 0000.0001) %MON dynstat_eta_max              =   3.9915463022545E-01
(PID.TID 0000.0001) %MON dynstat_eta_min              =  -3.9916355256493E-01
(PID.TID 0000.0001) %MON dynstat_eta_mean             =   2.0023518271341E-16
(PID.TID 0000.0001) %MON dynstat_eta_sd               =   1.7680297721570E-01
(PID.TID 0000.0001) %MON dynstat_eta_del2             =   1.7619359332060E-03
(PID.TID 0000.0001) %MON dynstat_uvel_max             =   6.9857826148065E-03
(PID.TID 0000.0001) %MON dynstat_uvel_min             =  -6.9857826148065E-03
(PID.TID 0000.0001) %MON dynstat_uvel_mean            =   2.1245014868745E-18
(PID.TID 0000.0001) %MON dynstat_uvel_sd              =   3.0130782537562E-03
(PID.TID 0000.0001) %MON dynstat_uvel_del2            =   3.5878834254731E-05
(PID.TID 0000.0001) %MON dynstat_vvel_max             =   6.9857013913057E-03
(PID.TID 0000.0001) %MON dynstat_vvel_min             =  -6.9857013913057E-03
(PID.TID 0000.0001) %MON dynstat_vvel_mean            =   2.8326686491661E-19
(PID.TID 0000.0001) %MON dynstat_vvel_sd              =   3.0131613262339E-03
(PID.TID 0000.0001) %MON dynstat_vvel_del2            =   3.5875217242766E-05
(PID.TID 0000.0001) %MON dynstat_wvel_max             =   7.1251437300654E-06
(PID.TID 0000.0001) %MON dynstat_wvel_min             =  -7.1255919741559E-06
(PID.TID 0000.0001) %MON dynstat_wvel_mean            =  -2.8050667530364E-22
(PID.TID 0000.0001) %MON dynstat_wvel_sd              =   1.9155106491770E-06
(PID.TID 0000.0001) %MON dynstat_wvel_del2            =   1.9784166882173E-08
(PID.TID 0000.0001) %MON dynstat_theta_max            =   1.9986633120283E+01
(PID.TID 0000.0001) %MON dynstat_theta_min            =   6.0030655682115E+00
(PID.TID 0000.0001) %MON dynstat_theta_mean           =   1.1000000061114E+01
(PID.TID 0000.0001) %MON dynstat_theta_sd             =   5.3769969978793E+00
(PID.TID 0000.0001) %MON dynstat_theta_del2           =   7.9412515036747E-06
(PID.TID 0000.0001) %MON dynstat_salt_max             =   1.0000000000000E+01
(PID.TID 0000.0001) %MON dynstat_salt_min             =   1.0000000000000E+01
(PID.TID 0000.0001) %MON dynstat_salt_mean            =   1.0000000000000E+01
(PID.TID 0000.0001) %MON dynstat_salt_sd              =   0.0000000000000E+00
(PID.TID 0000.0001) %MON dynstat_salt_del2            =   0.0000000000000E+00
(PID.TID 0000.0001) %MON extforcing_qnet_max          =   0.0000000000000E+00
(PID.TID 0000.0001) %MON extforcing_qnet_min          =   0.0000000000000E+00
(PID.TID 0000.0001) %MON extforcing_qnet_mean         =   0.0000000000000E+00
(PID.TID 0000.0001) %MON extforcing_qnet_sd           =   0.0000000000000E+00
(PID.TID 0000.0001) %MON extforcing_qsw_max           =   0.0000000000000E+00
(PID.TID 0000.0001) %MON extforcing_qsw_min           =   0.0000000000000E+00
(PID.TID 0000.0001) %MON extforcing_qsw_mean          =   0.0000000000000E+00
(PID.TID 0000.0001) %MON extforcing_qsw_sd            =   0.0000000000000E+00
(PID.TID 0000.0001) %MON extforcing_empmr_max         =   0.0000000000000E+00
(PID.TID 0000.0001) %MON extforcing_empmr_min         =   0.0000000000000E+00
(PID.TID 0000.0001) %MON extforcing_empmr_mean        =   0.0000000000000E+00
(PID.TID 0000.0001) %MON extforcing_empmr_sd          =   0.0000000000000E+00
(PID.TID 0000.0001) %MON advcfl_uvel_max              =   8.3829389259970E-05
(PID.TID 0000.0001) %MON advcfl_vvel_max              =   8.3828414577985E-05
(PID.TID 0000.0001) %MON advcfl_wvel_max              =   3.4202843100496E-05
(PID.TID 0000.0001) %MON advcfl_W_hf_max              =   1.2998536279497E-05
(PID.TID 0000.0001) %MON pe_b_mean                    =  -1.0805144805422E-04
(PID.TID 0000.0001) %MON ke_max                       =   3.2711492321604E-05
(PID.TID 0000.0001) %MON ke_mean                      =   8.8887401565754E-06
(PID.TID 0000.0001) %MON ke_vol                       =   5.6340000000000E+16
(PID.TID 0000.0001) %MON vort_r_min                   =  -2.1329476979107E-08
(PID.TID 0000.0001) %MON vort_r_max                   =   2.1345209440418E-08
(PID.TID 0000.0001) %MON vort_a_mean                  =   9.9999997473787E-05
(PID.TID 0000.0001) %MON vort_a_sd                    =   8.6563847145526E-09
(PID.TID 0000.0001) %MON vort_p_mean                  =   1.0398839476244E-04
(PID.TID 0000.0001) %MON vort_p_sd                    =   3.0798696952846E-05
(PID.TID 0000.0001) %MON surfExpan_theta_mean         =  -3.5155052630575E-09
(PID.TID 0000.0001) %MON surfExpan_salt_mean          =  -5.4219702604522E-21
(PID.TID 0000.0001) // =======================================================
(PID.TID 0000.0001) // End MONITOR dynamic field statistics
(PID.TID 0000.0001) // =======================================================
 cg2d: Sum(rhs),rhsMax =  -8.77520278663724E-13  1.60731333155432E+00
(PID.TID 0000.0001)                    cg2d_init_res =    7.14114365865649E-01
(PID.TID 0000.0001)                       cg2d_iters =    33
(PID.TID 0000.0001)                         cg2d_res =    4.04012871170194E-14
(PID.TID 0000.0001) // =======================================================
(PID.TID 0000.0001) // Begin MONITOR dynamic field statistics
(PID.TID 0000.0001) // =======================================================
(PID.TID 0000.0001) %MON time_tsnumber                =                    35
(PID.TID 0000.0001) %MON time_secondsf                =   4.2000000000000E+04
(PID.TID 0000.0001) %MON dynstat_eta_max              =   4.1181368161007E-01
(PID.TID 0000.0001) %MON dynstat_eta_min              =  -4.1182310537813E-01
(PID.TID 0000.0001) %MON dynstat_eta_mean             =   1.5364306263605E-16
(PID.TID 0000.0001) %MON dynstat_eta_sd               =   1.8189015061211E-01
(PID.TID 0000.0001) %MON dynstat_eta_del2             =   1.8098785003061E-03
(PID.TID 0000.0001) %MON dynstat_uvel_max             =   7.7296050974348E-03
(PID.TID 0000.0001) %MON dynstat_uvel_min             =  -7.7296050974348E-03
(PID.TID 0000.0001) %MON dynstat_uvel_mean            =  -2.8326686491661E-19
(PID.TID 0000.0001) %MON dynstat_uvel_sd              =   3.1551716594291E-03
(PID.TID 0000.0001) %MON dynstat_uvel_del2            =   3.7356611163855E-05
(PID.TID 0000.0001) %MON dynstat_vvel_max             =   7.7298104435337E-03
(PID.TID 0000.0001) %MON dynstat_vvel_min             =  -7.7298104435337E-03
(PID.TID 0000.0001) %MON dynstat_vvel_mean            =   1.0622507434373E-18
(PID.TID 0000.0001) %MON dynstat_vvel_sd              =   3.1552781182389E-03
(PID.TID 0000.0001) %MON dynstat_vvel_del2            =   3.7352224134608E-05
(PID.TID 0000.0001) %MON dynstat_wvel_max             =   1.1002643730594E-05
(PID.TID 0000.0001) %MON dynstat_wvel_min             =  -1.1003265907381E-05
(PID.TID 0000.0001) %MON dynstat_wvel_mean            =   2.5148874337568E-22
(PID.TID 0000.0001) %MON dynstat_wvel_sd              =   2.9048758074345E-06
(PID.TID 0000.0001) %MON dynstat_wvel_del2            =   2.9208197413150E-08
(PID.TID 0000.0001) %MON dynstat_theta_max            =   1.9986245029033E+01
(PID.TID 0000.0001) %MON dynstat_theta_min            =   6.0031552708262E+00
(PID.TID 0000.0001) %MON dynstat_theta_mean           =   1.1000000064220E+01
(PID.TID 0000.0001) %MON dynstat_theta_sd             =   5.3767572097964E+00
(PID.TID 0000.0001) %MON dynstat_theta_del2           =   8.1593329406961E-06
(PID.TID 0000.0001) %MON dynstat_salt_max             =   1.0000000000000E+01
(PID.TID 0000.0001) %MON dynstat_salt_min             =   1.0000000000000E+01
(PID.TID 0000.0001) %MON dynstat_salt_mean            =   1.0000000000000E+01
(PID.TID 0000.0001) %MON dynstat_salt_sd              =   0.0000000000000E+00
(PID.TID 0000.0001) %MON dynstat_salt_del2            =   0.0000000000000E+00
(PID.TID 0000.0001) %MON extforcing_qnet_max          =   0.0000000000000E+00
(PID.TID 0000.0001) %MON extforcing_qnet_min          =   0.0000000000000E+00
(PID.TID 0000.0001) %MON extforcing_qnet_mean         =   0.0000000000000E+00
(PID.TID 0000.0001) %MON extforcing_qnet_sd           =   0.0000000000000E+00
(PID.TID 0000.0001) %MON extforcing_qsw_max           =   0.0000000000000E+00
(PID.TID 0000.0001) %MON extforcing_qsw_min           =   0.0000000000000E+00
(PID.TID 0000.0001) %MON extforcing_qsw_mean          =   0.0000000000000E+00
(PID.TID 0000.0001) %MON extforcing_qsw_sd            =   0.0000000000000E+00
(PID.TID 0000.0001) %MON extforcing_empmr_max         =   0.0000000000000E+00
(PID.TID 0000.0001) %MON extforcing_empmr_min         =   0.0000000000000E+00
(PID.TID 0000.0001) %MON extforcing_empmr_mean        =   0.0000000000000E+00
(PID.TID 0000.0001) %MON extforcing_empmr_sd          =   0.0000000000000E+00
(PID.TID 0000.0001) %MON advcfl_uvel_max              =   9.2755258826023E-05
(PID.TID 0000.0001) %MON advcfl_vvel_max              =   9.2757722979148E-05
(PID.TID 0000.0001) %MON advcfl_wvel_max              =   5.2815678864039E-05
(PID.TID 0000.0001) %MON advcfl_W_hf_max              =   1.9995333872179E-05
(PID.TID 0000.0001) %MON pe_b_mean                    =  -1.0911207981446E-04
(PID.TID 0000.0001) %MON ke_max                       =   3.8099017201149E-05
(PID.TID 0000.0001) %MON ke_mean                      =   9.7469346230673E-06
(PID.TID 0000.0001) %MON ke_vol                       =   5.6340000000000E+16
(PID.TID 0000.0001) %MON vort_r_min                   =  -2.0406229211038E-08
(PID.TID 0000.0001) %MON vort_r_max                   =   2.0409632421267E-08
(PID.TID 0000.0001) %MON vort_a_mean                  =   9.9999997473788E-05
(PID.TID 0000.0001) %MON vort_a_sd                    =   8.8414920962375E-09
(PID.TID 0000.0001) %MON vort_p_mean                  =   1.0398839476244E-04
(PID.TID 0000.0001) %MON vort_p_sd                    =   3.0798696990910E-05
(PID.TID 0000.0001) %MON surfExpan_theta_mean         =  -5.6561211664212E-09
(PID.TID 0000.0001) %MON surfExpan_salt_mean          =   5.2897270833680E-22
(PID.TID 0000.0001) // =======================================================
(PID.TID 0000.0001) // End MONITOR dynamic field statistics
(PID.TID 0000.0001) // =======================================================
 cg2d: Sum(rhs),rhsMax =  -9.87654402706539E-13  1.66565416656116E+00
(PID.TID 0000.0001)                    cg2d_init_res =    8.25039760923769E-01
(PID.TID 0000.0001)                       cg2d_iters =    33
(PID.TID 0000.0001)                         cg2d_res =    4.63899349201288E-14
(PID.TID 0000.0001) // =======================================================
(PID.TID 0000.0001) // Begin MONITOR dynamic field statistics
(PID.TID 0000.0001) // =======================================================
(PID.TID 0000.0001) %MON time_tsnumber                =                    36
(PID.TID 0000.0001) %MON time_secondsf                =   4.3200000000000E+04
(PID.TID 0000.0001) %MON dynstat_eta_max              =   4.2668244764610E-01
(PID.TID 0000.0001) %MON dynstat_eta_min              =  -4.2669251701937E-01
(PID.TID 0000.0001) %MON dynstat_eta_mean             =   1.6972843742466E-16
(PID.TID 0000.0001) %MON dynstat_eta_sd               =   1.8793724246351E-01
(PID.TID 0000.0001) %MON dynstat_eta_del2             =   1.8682075389392E-03
(PID.TID 0000.0001) %MON dynstat_uvel_max             =   8.2461315657384E-03
(PID.TID 0000.0001) %MON dynstat_uvel_min             =  -8.2461315657383E-03
(PID.TID 0000.0001) %MON dynstat_uvel_mean            =   7.4357552040609E-19
(PID.TID 0000.0001) %MON dynstat_uvel_sd              =   3.3045193213070E-03
(PID.TID 0000.0001) %MON dynstat_uvel_del2            =   3.9113408321594E-05
(PID.TID 0000.0001) %MON dynstat_vvel_max             =   8.2464928569160E-03
(PID.TID 0000.0001) %MON dynstat_vvel_min             =  -8.2464928569160E-03
(PID.TID 0000.0001) %MON dynstat_vvel_mean            =  -2.2661349193329E-18
(PID.TID 0000.0001) %MON dynstat_vvel_sd              =   3.3046435151394E-03
(PID.TID 0000.0001) %MON dynstat_vvel_del2            =   3.9108547735070E-05
(PID.TID 0000.0001) %MON dynstat_wvel_max             =   1.3015576552608E-05
(PID.TID 0000.0001) %MON dynstat_wvel_min             =  -1.3016185195039E-05
(PID.TID 0000.0001) %MON dynstat_wvel_mean            =   1.1994078530225E-21
(PID.TID 0000.0001) %MON dynstat_wvel_sd              =   3.4721837515330E-06
(PID.TID 0000.0001) %MON dynstat_wvel_del2            =   3.4613512527614E-08
(PID.TID 0000.0001) %MON dynstat_theta_max            =   1.9985881770889E+01
(PID.TID 0000.0001) %MON dynstat_theta_min            =   6.0032433124881E+00
(PID.TID 0000.0001) %MON dynstat_theta_mean           =   1.1000000068384E+01
(PID.TID 0000.0001) %MON dynstat_theta_sd             =   5.3765174485041E+00
(PID.TID 0000.0001) %MON dynstat_theta_del2           =   8.4446295136926E-06
(PID.TID 0000.0001) %MON dynstat_salt_max             =   1.0000000000000E+01
(PID.TID 0000.0001) %MON dynstat_salt_min             =   1.0000000000000E+01
(PID.TID 0000.0001) %MON dynstat_salt_mean            =   1.0000000000000E+01
(PID.TID 0000.0001) %MON dynstat_salt_sd              =   0.0000000000000E+00
(PID.TID 0000.0001) %MON dynstat_salt_del2            =   0.0000000000000E+00
(PID.TID 0000.0001) %MON extforcing_qnet_max          =   0.0000000000000E+00
(PID.TID 0000.0001) %MON extforcing_qnet_min          =   0.0000000000000E+00
(PID.TID 0000.0001) %MON extforcing_qnet_mean         =   0.0000000000000E+00
(PID.TID 0000.0001) %MON extforcing_qnet_sd           =   0.0000000000000E+00
(PID.TID 0000.0001) %MON extforcing_qsw_max           =   0.0000000000000E+00
(PID.TID 0000.0001) %MON extforcing_qsw_min           =   0.0000000000000E+00
(PID.TID 0000.0001) %MON extforcing_qsw_mean          =   0.0000000000000E+00
(PID.TID 0000.0001) %MON extforcing_qsw_sd            =   0.0000000000000E+00
(PID.TID 0000.0001) %MON extforcing_empmr_max         =   0.0000000000000E+00
(PID.TID 0000.0001) %MON extforcing_empmr_min         =   0.0000000000000E+00
(PID.TID 0000.0001) %MON extforcing_empmr_mean        =   0.0000000000000E+00
(PID.TID 0000.0001) %MON extforcing_empmr_sd          =   0.0000000000000E+00
(PID.TID 0000.0001) %MON advcfl_uvel_max              =   9.8953576289083E-05
(PID.TID 0000.0001) %MON advcfl_vvel_max              =   9.8957911783105E-05
(PID.TID 0000.0001) %MON advcfl_wvel_max              =   6.2477691903720E-05
(PID.TID 0000.0001) %MON advcfl_W_hf_max              =   2.3631904127145E-05
(PID.TID 0000.0001) %MON pe_b_mean                    =  -1.1019588183591E-04
(PID.TID 0000.0001) %MON ke_max                       =   4.3060598702120E-05
(PID.TID 0000.0001) %MON ke_mean                      =   1.0691541547396E-05
(PID.TID 0000.0001) %MON ke_vol                       =   5.6340000000000E+16
(PID.TID 0000.0001) %MON vort_r_min                   =  -2.1135790228529E-08
(PID.TID 0000.0001) %MON vort_r_max                   =   2.1139442156437E-08
(PID.TID 0000.0001) %MON vort_a_mean                  =   9.9999997473788E-05
(PID.TID 0000.0001) %MON vort_a_sd                    =   9.1183377918448E-09
(PID.TID 0000.0001) %MON vort_p_mean                  =   1.0398839476244E-04
(PID.TID 0000.0001) %MON vort_p_sd                    =   3.0798697071739E-05
(PID.TID 0000.0001) %MON surfExpan_theta_mean         =  -6.9620034332643E-09
(PID.TID 0000.0001) %MON surfExpan_salt_mean          =   7.4056179167152E-21
(PID.TID 0000.0001) // =======================================================
(PID.TID 0000.0001) // End MONITOR dynamic field statistics
(PID.TID 0000.0001) // =======================================================
 Computing Diagnostic #     26  THETA        Counter:      36   Parms: SM      MR      
 Computing Diagnostic #     33  THETASQ      Counter:      36   Parms: SM P    MR      
 cg2d: Sum(rhs),rhsMax =  -9.13047415451729E-13  1.72409504699185E+00
(PID.TID 0000.0001)                    cg2d_init_res =    8.17162581746489E-01
(PID.TID 0000.0001)                       cg2d_iters =    33
(PID.TID 0000.0001)                         cg2d_res =    5.04743530676553E-14
(PID.TID 0000.0001) // =======================================================
(PID.TID 0000.0001) // Begin MONITOR dynamic field statistics
(PID.TID 0000.0001) // =======================================================
(PID.TID 0000.0001) %MON time_tsnumber                =                    37
(PID.TID 0000.0001) %MON time_secondsf                =   4.4400000000000E+04
(PID.TID 0000.0001) %MON dynstat_eta_max              =   4.4155347654420E-01
(PID.TID 0000.0001) %MON dynstat_eta_min              =  -4.4156424573945E-01
(PID.TID 0000.0001) %MON dynstat_eta_mean             =   1.3922169213592E-16
(PID.TID 0000.0001) %MON dynstat_eta_sd               =   1.9403485863453E-01
(PID.TID 0000.0001) %MON dynstat_eta_del2             =   1.9279640947002E-03
(PID.TID 0000.0001) %MON dynstat_uvel_max             =   8.4826256762758E-03
(PID.TID 0000.0001) %MON dynstat_uvel_min             =  -8.4826256762757E-03
(PID.TID 0000.0001) %MON dynstat_uvel_mean            =   2.6202185004786E-18
(PID.TID 0000.0001) %MON dynstat_uvel_sd              =   3.4284083963392E-03
(PID.TID 0000.0001) %MON dynstat_uvel_del2            =   4.0556635290220E-05
(PID.TID 0000.0001) %MON dynstat_vvel_max             =   8.4831014330720E-03
(PID.TID 0000.0001) %MON dynstat_vvel_min             =  -8.4831014330720E-03
(PID.TID 0000.0001) %MON dynstat_vvel_mean            =  -6.3735044606236E-19
(PID.TID 0000.0001) %MON dynstat_vvel_sd              =   3.4285375444845E-03
(PID.TID 0000.0001) %MON dynstat_vvel_del2            =   4.0551257279742E-05
(PID.TID 0000.0001) %MON dynstat_wvel_max             =   1.3115184481461E-05
(PID.TID 0000.0001) %MON dynstat_wvel_min             =  -1.3115690182880E-05
(PID.TID 0000.0001) %MON dynstat_wvel_mean            =  -1.4702418843501E-21
(PID.TID 0000.0001) %MON dynstat_wvel_sd              =   3.5670017423677E-06
(PID.TID 0000.0001) %MON dynstat_wvel_del2            =   3.5348884919797E-08
(PID.TID 0000.0001) %MON dynstat_theta_max            =   1.9985525466064E+01
(PID.TID 0000.0001) %MON dynstat_theta_min            =   6.0033308877660E+00
(PID.TID 0000.0001) %MON dynstat_theta_mean           =   1.1000000073031E+01
(PID.TID 0000.0001) %MON dynstat_theta_sd             =   5.3762777129905E+00
(PID.TID 0000.0001) %MON dynstat_theta_del2           =   8.7536847192990E-06
(PID.TID 0000.0001) %MON dynstat_salt_max             =   1.0000000000000E+01
(PID.TID 0000.0001) %MON dynstat_salt_min             =   1.0000000000000E+01
(PID.TID 0000.0001) %MON dynstat_salt_mean            =   1.0000000000000E+01
(PID.TID 0000.0001) %MON dynstat_salt_sd              =   0.0000000000000E+00
(PID.TID 0000.0001) %MON dynstat_salt_del2            =   0.0000000000000E+00
(PID.TID 0000.0001) %MON extforcing_qnet_max          =   0.0000000000000E+00
(PID.TID 0000.0001) %MON extforcing_qnet_min          =   0.0000000000000E+00
(PID.TID 0000.0001) %MON extforcing_qnet_mean         =   0.0000000000000E+00
(PID.TID 0000.0001) %MON extforcing_qnet_sd           =   0.0000000000000E+00
(PID.TID 0000.0001) %MON extforcing_qsw_max           =   0.0000000000000E+00
(PID.TID 0000.0001) %MON extforcing_qsw_min           =   0.0000000000000E+00
(PID.TID 0000.0001) %MON extforcing_qsw_mean          =   0.0000000000000E+00
(PID.TID 0000.0001) %MON extforcing_qsw_sd            =   0.0000000000000E+00
(PID.TID 0000.0001) %MON extforcing_empmr_max         =   0.0000000000000E+00
(PID.TID 0000.0001) %MON extforcing_empmr_min         =   0.0000000000000E+00
(PID.TID 0000.0001) %MON extforcing_empmr_mean        =   0.0000000000000E+00
(PID.TID 0000.0001) %MON extforcing_empmr_sd          =   0.0000000000000E+00
(PID.TID 0000.0001) %MON advcfl_uvel_max              =   1.0179150554384E-04
(PID.TID 0000.0001) %MON advcfl_vvel_max              =   1.0179721462525E-04
(PID.TID 0000.0001) %MON advcfl_wvel_max              =   6.2955315868043E-05
(PID.TID 0000.0001) %MON advcfl_W_hf_max              =   2.3820374398651E-05
(PID.TID 0000.0001) %MON pe_b_mean                    =  -1.1109771669112E-04
(PID.TID 0000.0001) %MON ke_max                       =   4.6955951263875E-05
(PID.TID 0000.0001) %MON ke_mean                      =   1.1508239057896E-05
(PID.TID 0000.0001) %MON ke_vol                       =   5.6340000000000E+16
(PID.TID 0000.0001) %MON vort_r_min                   =  -2.1908006093887E-08
(PID.TID 0000.0001) %MON vort_r_max                   =   2.1911939169369E-08
(PID.TID 0000.0001) %MON vort_a_mean                  =   9.9999997473788E-05
(PID.TID 0000.0001) %MON vort_a_sd                    =   9.4238748735211E-09
(PID.TID 0000.0001) %MON vort_p_mean                  =   1.0398839476244E-04
(PID.TID 0000.0001) %MON vort_p_sd                    =   3.0798697168284E-05
(PID.TID 0000.0001) %MON surfExpan_theta_mean         =  -7.2784431165918E-09
(PID.TID 0000.0001) %MON surfExpan_salt_mean          =  -1.2695345000083E-20
(PID.TID 0000.0001) // =======================================================
(PID.TID 0000.0001) // End MONITOR dynamic field statistics
(PID.TID 0000.0001) // =======================================================
 Compute Stats, Diag. #     23  ETAN      vol(   0 ): 2.817E+13  Parms: SM      M1      
 Compute Stats, Diag. #    136  momKE     vol(   0 ): 5.634E+16  Parms: SM      MR      
 Compute Stats, Diag. #     26  THETA     vol(   0 ): 5.634E+16  Parms: SM      MR      
 Compute Stats, Diag. #     33  THETASQ   vol(   0 ): 5.634E+16  Parms: SM P    MR      
 cg2d: Sum(rhs),rhsMax =  -9.36140054363932E-13  1.77490492004706E+00
(PID.TID 0000.0001)                    cg2d_init_res =    7.18462618462066E-01
(PID.TID 0000.0001)                       cg2d_iters =    33
(PID.TID 0000.0001)                         cg2d_res =    5.12875193319674E-14
(PID.TID 0000.0001) // =======================================================
(PID.TID 0000.0001) // Begin MONITOR dynamic field statistics
(PID.TID 0000.0001) // =======================================================
(PID.TID 0000.0001) %MON time_tsnumber                =                    38
(PID.TID 0000.0001) %MON time_secondsf                =   4.5600000000000E+04
(PID.TID 0000.0001) %MON dynstat_eta_max              =   4.5446764945095E-01
(PID.TID 0000.0001) %MON dynstat_eta_min              =  -4.5447913414143E-01
(PID.TID 0000.0001) %MON dynstat_eta_mean             =   1.1453896185684E-16
(PID.TID 0000.0001) %MON dynstat_eta_sd               =   1.9936627069262E-01
(PID.TID 0000.0001) %MON dynstat_eta_del2             =   1.9814576333754E-03
(PID.TID 0000.0001) %MON dynstat_uvel_max             =   8.4520074335219E-03
(PID.TID 0000.0001) %MON dynstat_uvel_min             =  -8.4520074335220E-03
(PID.TID 0000.0001) %MON dynstat_uvel_mean            =   5.6653372983321E-19
(PID.TID 0000.0001) %MON dynstat_uvel_sd              =   3.5156092693914E-03
(PID.TID 0000.0001) %MON dynstat_uvel_del2            =   4.1466804788652E-05
(PID.TID 0000.0001) %MON dynstat_vvel_max             =   8.4525703028615E-03
(PID.TID 0000.0001) %MON dynstat_vvel_min             =  -8.4525703028615E-03
(PID.TID 0000.0001) %MON dynstat_vvel_mean            =  -2.8326686491661E-19
(PID.TID 0000.0001) %MON dynstat_vvel_sd              =   3.5157286477247E-03
(PID.TID 0000.0001) %MON dynstat_vvel_del2            =   4.1461285143860E-05
(PID.TID 0000.0001) %MON dynstat_wvel_max             =   1.1513785334393E-05
(PID.TID 0000.0001) %MON dynstat_wvel_min             =  -1.1514174301829E-05
(PID.TID 0000.0001) %MON dynstat_wvel_mean            =   7.7381151807901E-23
(PID.TID 0000.0001) %MON dynstat_wvel_sd              =   3.2485247385296E-06
(PID.TID 0000.0001) %MON dynstat_wvel_del2            =   3.1830235966236E-08
(PID.TID 0000.0001) %MON dynstat_theta_max            =   1.9985159343188E+01
(PID.TID 0000.0001) %MON dynstat_theta_min            =   6.0034191174196E+00
(PID.TID 0000.0001) %MON dynstat_theta_mean           =   1.1000000077512E+01
(PID.TID 0000.0001) %MON dynstat_theta_sd             =   5.3760380021535E+00
(PID.TID 0000.0001) %MON dynstat_theta_del2           =   9.0461342102659E-06
(PID.TID 0000.0001) %MON dynstat_salt_max             =   1.0000000000000E+01
(PID.TID 0000.0001) %MON dynstat_salt_min             =   1.0000000000000E+01
(PID.TID 0000.0001) %MON dynstat_salt_mean            =   1.0000000000000E+01
(PID.TID 0000.0001) %MON dynstat_salt_sd              =   0.0000000000000E+00
(PID.TID 0000.0001) %MON dynstat_salt_del2            =   0.0000000000000E+00
(PID.TID 0000.0001) %MON extforcing_qnet_max          =   0.0000000000000E+00
(PID.TID 0000.0001) %MON extforcing_qnet_min          =   0.0000000000000E+00
(PID.TID 0000.0001) %MON extforcing_qnet_mean         =   0.0000000000000E+00
(PID.TID 0000.0001) %MON extforcing_qnet_sd           =   0.0000000000000E+00
(PID.TID 0000.0001) %MON extforcing_qsw_max           =   0.0000000000000E+00
(PID.TID 0000.0001) %MON extforcing_qsw_min           =   0.0000000000000E+00
(PID.TID 0000.0001) %MON extforcing_qsw_mean          =   0.0000000000000E+00
(PID.TID 0000.0001) %MON extforcing_qsw_sd            =   0.0000000000000E+00
(PID.TID 0000.0001) %MON extforcing_empmr_max         =   0.0000000000000E+00
(PID.TID 0000.0001) %MON extforcing_empmr_min         =   0.0000000000000E+00
(PID.TID 0000.0001) %MON extforcing_empmr_mean        =   0.0000000000000E+00
(PID.TID 0000.0001) %MON extforcing_empmr_sd          =   0.0000000000000E+00
(PID.TID 0000.0001) %MON advcfl_uvel_max              =   1.0142408664008E-04
(PID.TID 0000.0001) %MON advcfl_vvel_max              =   1.0143084107198E-04
(PID.TID 0000.0001) %MON advcfl_wvel_max              =   5.5268039273870E-05
(PID.TID 0000.0001) %MON advcfl_W_hf_max              =   2.0942980598477E-05
(PID.TID 0000.0001) %MON pe_b_mean                    =  -1.1173452636051E-04
(PID.TID 0000.0001) %MON ke_max                       =   4.9575410344486E-05
(PID.TID 0000.0001) %MON ke_mean                      =   1.2101058593397E-05
(PID.TID 0000.0001) %MON ke_vol                       =   5.6340000000000E+16
(PID.TID 0000.0001) %MON vort_r_min                   =  -2.2612854328300E-08
(PID.TID 0000.0001) %MON vort_r_max                   =   2.2617056538293E-08
(PID.TID 0000.0001) %MON vort_a_mean                  =   9.9999997473788E-05
(PID.TID 0000.0001) %MON vort_a_sd                    =   9.7048367617061E-09
(PID.TID 0000.0001) %MON vort_p_mean                  =   1.0398839476244E-04
(PID.TID 0000.0001) %MON vort_p_sd                    =   3.0798697257014E-05
(PID.TID 0000.0001) %MON surfExpan_theta_mean         =  -6.5740308910619E-09
(PID.TID 0000.0001) %MON surfExpan_salt_mean          =   2.6448635416840E-20
(PID.TID 0000.0001) // =======================================================
(PID.TID 0000.0001) // End MONITOR dynamic field statistics
(PID.TID 0000.0001) // =======================================================
 cg2d: Sum(rhs),rhsMax =  -6.53699316899292E-13  1.81225105606101E+00
(PID.TID 0000.0001)                    cg2d_init_res =    5.67117683095307E-01
(PID.TID 0000.0001)                       cg2d_iters =    33
(PID.TID 0000.0001)                         cg2d_res =    4.94247561356443E-14
(PID.TID 0000.0001) // =======================================================
(PID.TID 0000.0001) // Begin MONITOR dynamic field statistics
(PID.TID 0000.0001) // =======================================================
(PID.TID 0000.0001) %MON time_tsnumber                =                    39
(PID.TID 0000.0001) %MON time_secondsf                =   4.6800000000000E+04
(PID.TID 0000.0001) %MON dynstat_eta_max              =   4.6394634356710E-01
(PID.TID 0000.0001) %MON dynstat_eta_min              =  -4.6395851752181E-01
(PID.TID 0000.0001) %MON dynstat_eta_mean             =   1.4338170285711E-16
(PID.TID 0000.0001) %MON dynstat_eta_sd               =   2.0330896747927E-01
(PID.TID 0000.0001) %MON dynstat_eta_del2             =   2.0221692074106E-03
(PID.TID 0000.0001) %MON dynstat_uvel_max             =   8.1853299910804E-03
(PID.TID 0000.0001) %MON dynstat_uvel_min             =  -8.1853299910807E-03
(PID.TID 0000.0001) %MON dynstat_uvel_mean            =   1.5579677570413E-18
(PID.TID 0000.0001) %MON dynstat_uvel_sd              =   3.5691531107624E-03
(PID.TID 0000.0001) %MON dynstat_uvel_del2            =   4.1932760092477E-05
(PID.TID 0000.0001) %MON dynstat_vvel_max             =   8.1860417656573E-03
(PID.TID 0000.0001) %MON dynstat_vvel_min             =  -8.1860417656573E-03
(PID.TID 0000.0001) %MON dynstat_vvel_mean            =  -8.4980059474982E-19
(PID.TID 0000.0001) %MON dynstat_vvel_sd              =   3.5692508573468E-03
(PID.TID 0000.0001) %MON dynstat_vvel_del2            =   4.1927393201922E-05
(PID.TID 0000.0001) %MON dynstat_wvel_max             =   8.6787322408681E-06
(PID.TID 0000.0001) %MON dynstat_wvel_min             =  -8.6789823212993E-06
(PID.TID 0000.0001) %MON dynstat_wvel_mean            =  -3.8690575903951E-23
(PID.TID 0000.0001) %MON dynstat_wvel_sd              =   2.6553132553549E-06
(PID.TID 0000.0001) %MON dynstat_wvel_del2            =   2.5173114195375E-08
(PID.TID 0000.0001) %MON dynstat_theta_max            =   1.9984769853267E+01
(PID.TID 0000.0001) %MON dynstat_theta_min            =   6.0035089071783E+00
(PID.TID 0000.0001) %MON dynstat_theta_mean           =   1.1000000081203E+01
(PID.TID 0000.0001) %MON dynstat_theta_sd             =   5.3757983149651E+00
(PID.TID 0000.0001) %MON dynstat_theta_del2           =   9.2903143301175E-06
(PID.TID 0000.0001) %MON dynstat_salt_max             =   1.0000000000000E+01
(PID.TID 0000.0001) %MON dynstat_salt_min             =   1.0000000000000E+01
(PID.TID 0000.0001) %MON dynstat_salt_mean            =   1.0000000000000E+01
(PID.TID 0000.0001) %MON dynstat_salt_sd              =   0.0000000000000E+00
(PID.TID 0000.0001) %MON dynstat_salt_del2            =   0.0000000000000E+00
(PID.TID 0000.0001) %MON extforcing_qnet_max          =   0.0000000000000E+00
(PID.TID 0000.0001) %MON extforcing_qnet_min          =   0.0000000000000E+00
(PID.TID 0000.0001) %MON extforcing_qnet_mean         =   0.0000000000000E+00
(PID.TID 0000.0001) %MON extforcing_qnet_sd           =   0.0000000000000E+00
(PID.TID 0000.0001) %MON extforcing_qsw_max           =   0.0000000000000E+00
(PID.TID 0000.0001) %MON extforcing_qsw_min           =   0.0000000000000E+00
(PID.TID 0000.0001) %MON extforcing_qsw_mean          =   0.0000000000000E+00
(PID.TID 0000.0001) %MON extforcing_qsw_sd            =   0.0000000000000E+00
(PID.TID 0000.0001) %MON extforcing_empmr_max         =   0.0000000000000E+00
(PID.TID 0000.0001) %MON extforcing_empmr_min         =   0.0000000000000E+00
(PID.TID 0000.0001) %MON extforcing_empmr_mean        =   0.0000000000000E+00
(PID.TID 0000.0001) %MON extforcing_empmr_sd          =   0.0000000000000E+00
(PID.TID 0000.0001) %MON advcfl_uvel_max              =   9.8223957411623E-05
(PID.TID 0000.0001) %MON advcfl_vvel_max              =   9.8232498706326E-05
(PID.TID 0000.0001) %MON advcfl_wvel_max              =   4.1659117120939E-05
(PID.TID 0000.0001) %MON advcfl_W_hf_max              =   1.5830790270098E-05
(PID.TID 0000.0001) %MON pe_b_mean                    =  -1.1212339098738E-04
(PID.TID 0000.0001) %MON ke_max                       =   5.1039568558949E-05
(PID.TID 0000.0001) %MON ke_mean                      =   1.2472389541074E-05
(PID.TID 0000.0001) %MON ke_vol                       =   5.6340000000000E+16
(PID.TID 0000.0001) %MON vort_r_min                   =  -2.3161759831605E-08
(PID.TID 0000.0001) %MON vort_r_max                   =   2.3166176210780E-08
(PID.TID 0000.0001) %MON vort_a_mean                  =   9.9999997473788E-05
(PID.TID 0000.0001) %MON vort_a_sd                    =   9.9228561230291E-09
(PID.TID 0000.0001) %MON vort_p_mean                  =   1.0398839476244E-04
(PID.TID 0000.0001) %MON vort_p_sd                    =   3.0798697320450E-05
(PID.TID 0000.0001) %MON surfExpan_theta_mean         =  -4.9877647141891E-09
(PID.TID 0000.0001) %MON surfExpan_salt_mean          =   1.0579454166736E-21
(PID.TID 0000.0001) // =======================================================
(PID.TID 0000.0001) // End MONITOR dynamic field statistics
(PID.TID 0000.0001) // =======================================================
 cg2d: Sum(rhs),rhsMax =  -5.43565192856477E-13  1.83274501056253E+00
(PID.TID 0000.0001)                    cg2d_init_res =    4.11764119472023E-01
(PID.TID 0000.0001)                       cg2d_iters =    33
(PID.TID 0000.0001)                         cg2d_res =    4.61620489115324E-14
(PID.TID 0000.0001) // =======================================================
(PID.TID 0000.0001) // Begin MONITOR dynamic field statistics
(PID.TID 0000.0001) // =======================================================
(PID.TID 0000.0001) %MON time_tsnumber                =                    40
(PID.TID 0000.0001) %MON time_secondsf                =   4.8000000000000E+04
(PID.TID 0000.0001) %MON dynstat_eta_max              =   4.6912994550752E-01
(PID.TID 0000.0001) %MON dynstat_eta_min              =  -4.6914269847619E-01
(PID.TID 0000.0001) %MON dynstat_eta_mean             =   1.1606429912128E-16
(PID.TID 0000.0001) %MON dynstat_eta_sd               =   2.0549896083603E-01
(PID.TID 0000.0001) %MON dynstat_eta_del2             =   2.0459259820691E-03
(PID.TID 0000.0001) %MON dynstat_uvel_max             =   7.7414426345280E-03
(PID.TID 0000.0001) %MON dynstat_uvel_min             =  -7.7414426345283E-03
(PID.TID 0000.0001) %MON dynstat_uvel_mean            =   8.4980059474982E-19
(PID.TID 0000.0001) %MON dynstat_uvel_sd              =   3.5970361913232E-03
(PID.TID 0000.0001) %MON dynstat_uvel_del2            =   4.2141549697935E-05
(PID.TID 0000.0001) %MON dynstat_vvel_max             =   7.7421074233306E-03
(PID.TID 0000.0001) %MON dynstat_vvel_min             =  -7.7421074233307E-03
(PID.TID 0000.0001) %MON dynstat_vvel_mean            =   8.4980059474982E-19
(PID.TID 0000.0001) %MON dynstat_vvel_sd              =   3.5971065792846E-03
(PID.TID 0000.0001) %MON dynstat_vvel_del2            =   4.2136550934489E-05
(PID.TID 0000.0001) %MON dynstat_wvel_max             =   6.4208920994913E-06
(PID.TID 0000.0001) %MON dynstat_wvel_min             =  -6.4219909776245E-06
(PID.TID 0000.0001) %MON dynstat_wvel_mean            =   8.8988324579086E-22
(PID.TID 0000.0001) %MON dynstat_wvel_sd              =   2.0094639669612E-06
(PID.TID 0000.0001) %MON dynstat_wvel_del2            =   1.6854274896311E-08
(PID.TID 0000.0001) %MON dynstat_theta_max            =   1.9984348084115E+01
(PID.TID 0000.0001) %MON dynstat_theta_min            =   6.0036008532148E+00
(PID.TID 0000.0001) %MON dynstat_theta_mean           =   1.1000000083625E+01
(PID.TID 0000.0001) %MON dynstat_theta_sd             =   5.3755586506536E+00
(PID.TID 0000.0001) %MON dynstat_theta_del2           =   9.4606824465864E-06
(PID.TID 0000.0001) %MON dynstat_salt_max             =   1.0000000000000E+01
(PID.TID 0000.0001) %MON dynstat_salt_min             =   1.0000000000000E+01
(PID.TID 0000.0001) %MON dynstat_salt_mean            =   1.0000000000000E+01
(PID.TID 0000.0001) %MON dynstat_salt_sd              =   0.0000000000000E+00
(PID.TID 0000.0001) %MON dynstat_salt_del2            =   0.0000000000000E+00
(PID.TID 0000.0001) %MON extforcing_qnet_max          =   0.0000000000000E+00
(PID.TID 0000.0001) %MON extforcing_qnet_min          =   0.0000000000000E+00
(PID.TID 0000.0001) %MON extforcing_qnet_mean         =   0.0000000000000E+00
(PID.TID 0000.0001) %MON extforcing_qnet_sd           =   0.0000000000000E+00
(PID.TID 0000.0001) %MON extforcing_qsw_max           =   0.0000000000000E+00
(PID.TID 0000.0001) %MON extforcing_qsw_min           =   0.0000000000000E+00
(PID.TID 0000.0001) %MON extforcing_qsw_mean          =   0.0000000000000E+00
(PID.TID 0000.0001) %MON extforcing_qsw_sd            =   0.0000000000000E+00
(PID.TID 0000.0001) %MON extforcing_empmr_max         =   0.0000000000000E+00
(PID.TID 0000.0001) %MON extforcing_empmr_min         =   0.0000000000000E+00
(PID.TID 0000.0001) %MON extforcing_empmr_mean        =   0.0000000000000E+00
(PID.TID 0000.0001) %MON extforcing_empmr_sd          =   0.0000000000000E+00
(PID.TID 0000.0001) %MON advcfl_uvel_max              =   9.2897309267556E-05
(PID.TID 0000.0001) %MON advcfl_vvel_max              =   9.2905286732983E-05
(PID.TID 0000.0001) %MON advcfl_wvel_max              =   3.0825558156733E-05
(PID.TID 0000.0001) %MON advcfl_W_hf_max              =   1.2000135462403E-05
(PID.TID 0000.0001) %MON pe_b_mean                    =  -1.1232461947395E-04
(PID.TID 0000.0001) %MON ke_max                       =   5.1598781251556E-05
(PID.TID 0000.0001) %MON ke_mean                      =   1.2667926304223E-05
(PID.TID 0000.0001) %MON ke_vol                       =   5.6340000000000E+16
(PID.TID 0000.0001) %MON vort_r_min                   =  -2.3500742807291E-08
(PID.TID 0000.0001) %MON vort_r_max                   =   2.3505597128027E-08
(PID.TID 0000.0001) %MON vort_a_mean                  =   9.9999997473788E-05
(PID.TID 0000.0001) %MON vort_a_sd                    =   1.0055028325502E-08
(PID.TID 0000.0001) %MON vort_p_mean                  =   1.0398839476244E-04
(PID.TID 0000.0001) %MON vort_p_sd                    =   3.0798697347897E-05
(PID.TID 0000.0001) %MON surfExpan_theta_mean         =  -2.8201128585862E-09
(PID.TID 0000.0001) %MON surfExpan_salt_mean          =  -7.4056179167152E-21
(PID.TID 0000.0001) // =======================================================
(PID.TID 0000.0001) // End MONITOR dynamic field statistics
(PID.TID 0000.0001) // =======================================================
(PID.TID 0000.0001) %CHECKPOINT        40 ckptA
(PID.TID 0000.0001) DIAGSTATS_CLOSE_IO: close file: dynStDiag.0000000000.txt , unit=     9
(PID.TID 0000.0001)   Seconds in section "ALL                    [THE_MODEL_MAIN]":
(PID.TID 0000.0001)           User time:  10.5533956
(PID.TID 0000.0001)         System time:  0.185972
(PID.TID 0000.0001)     Wall clock time:  10.9614081
(PID.TID 0000.0001)          No. starts: 1
(PID.TID 0000.0001)           No. stops: 1
(PID.TID 0000.0001)   Seconds in section "INITIALISE_FIXED       [THE_MODEL_MAIN]":
(PID.TID 0000.0001)           User time:  1.54076595
(PID.TID 0000.0001)         System time:  0.0789880031
(PID.TID 0000.0001)     Wall clock time:  1.78947902
(PID.TID 0000.0001)          No. starts: 1
(PID.TID 0000.0001)           No. stops: 1
(PID.TID 0000.0001)   Seconds in section "THE_MAIN_LOOP          [THE_MODEL_MAIN]":
(PID.TID 0000.0001)           User time:  9.00563061
(PID.TID 0000.0001)         System time:  0.106983997
(PID.TID 0000.0001)     Wall clock time:  9.16488504
(PID.TID 0000.0001)          No. starts: 1
(PID.TID 0000.0001)           No. stops: 1
(PID.TID 0000.0001)   Seconds in section "INITIALISE_VARIA    [THE_MAIN_LOOP]":
(PID.TID 0000.0001)           User time:  0.219966054
(PID.TID 0000.0001)         System time:  0.015997
(PID.TID 0000.0001)     Wall clock time:  0.237215042
(PID.TID 0000.0001)          No. starts: 1
(PID.TID 0000.0001)           No. stops: 1
(PID.TID 0000.0001)   Seconds in section "MAIN LOOP           [THE_MAIN_LOOP]":
(PID.TID 0000.0001)           User time:  8.78566456
(PID.TID 0000.0001)         System time:  0.0909869969
(PID.TID 0000.0001)     Wall clock time:  8.92754602
(PID.TID 0000.0001)          No. starts: 1
(PID.TID 0000.0001)           No. stops: 1
(PID.TID 0000.0001)   Seconds in section "FORWARD_STEP        [THE_MAIN_LOOP]":
(PID.TID 0000.0001)           User time:  8.78466439
(PID.TID 0000.0001)         System time:  0.0909869969
(PID.TID 0000.0001)     Wall clock time:  8.9258287
(PID.TID 0000.0001)          No. starts: 40
(PID.TID 0000.0001)           No. stops: 40
(PID.TID 0000.0001)   Seconds in section "DO_STATEVARS_DIAGS  [FORWARD_STEP]":
(PID.TID 0000.0001)           User time:  0.0479950905
(PID.TID 0000.0001)         System time:  0.
(PID.TID 0000.0001)     Wall clock time:  0.0524704456
(PID.TID 0000.0001)          No. starts: 80
(PID.TID 0000.0001)           No. stops: 80
(PID.TID 0000.0001)   Seconds in section "LOAD_FIELDS_DRIVER  [FORWARD_STEP]":
(PID.TID 0000.0001)           User time:  0.0049996376
(PID.TID 0000.0001)         System time:  0.
(PID.TID 0000.0001)     Wall clock time:  0.00478720665
(PID.TID 0000.0001)          No. starts: 40
(PID.TID 0000.0001)           No. stops: 40
(PID.TID 0000.0001)   Seconds in section "EXTERNAL_FLDS_LOAD [LOAD_FLDS_DRIVER]":
(PID.TID 0000.0001)           User time:  0.000999927521
(PID.TID 0000.0001)         System time:  0.
(PID.TID 0000.0001)     Wall clock time:  0.00160312653
(PID.TID 0000.0001)          No. starts: 40
(PID.TID 0000.0001)           No. stops: 40
(PID.TID 0000.0001)   Seconds in section "DO_ATMOSPHERIC_PHYS [FORWARD_STEP]":
(PID.TID 0000.0001)           User time:  0.00199997425
(PID.TID 0000.0001)         System time:  0.
(PID.TID 0000.0001)     Wall clock time:  0.00158309937
(PID.TID 0000.0001)          No. starts: 40
(PID.TID 0000.0001)           No. stops: 40
(PID.TID 0000.0001)   Seconds in section "DO_OCEANIC_PHYS     [FORWARD_STEP]":
(PID.TID 0000.0001)           User time:  0.097982645
(PID.TID 0000.0001)         System time:  0.
(PID.TID 0000.0001)     Wall clock time:  0.0964846611
(PID.TID 0000.0001)          No. starts: 40
(PID.TID 0000.0001)           No. stops: 40
(PID.TID 0000.0001)   Seconds in section "THERMODYNAMICS      [FORWARD_STEP]":
(PID.TID 0000.0001)           User time:  1.42478371
(PID.TID 0000.0001)         System time:  0.00300000608
(PID.TID 0000.0001)     Wall clock time:  1.4288075
(PID.TID 0000.0001)          No. starts: 40
(PID.TID 0000.0001)           No. stops: 40
(PID.TID 0000.0001)   Seconds in section "DYNAMICS            [FORWARD_STEP]":
(PID.TID 0000.0001)           User time:  2.64059854
(PID.TID 0000.0001)         System time:  0.00799898803
(PID.TID 0000.0001)     Wall clock time:  2.65401196
(PID.TID 0000.0001)          No. starts: 40
(PID.TID 0000.0001)           No. stops: 40
(PID.TID 0000.0001)   Seconds in section "SOLVE_FOR_PRESSURE  [FORWARD_STEP]":
(PID.TID 0000.0001)           User time:  2.09968233
(PID.TID 0000.0001)         System time:  0.00199899077
(PID.TID 0000.0001)     Wall clock time:  2.10487342
(PID.TID 0000.0001)          No. starts: 40
(PID.TID 0000.0001)           No. stops: 40
(PID.TID 0000.0001)   Seconds in section "MOM_CORRECTION_STEP [FORWARD_STEP]":
(PID.TID 0000.0001)           User time:  0.22096765
(PID.TID 0000.0001)         System time:  0.
(PID.TID 0000.0001)     Wall clock time:  0.221093655
(PID.TID 0000.0001)          No. starts: 40
(PID.TID 0000.0001)           No. stops: 40
(PID.TID 0000.0001)   Seconds in section "TRC_CORRECTION_STEP [FORWARD_STEP]":
(PID.TID 0000.0001)           User time:  0.050992012
(PID.TID 0000.0001)         System time:  0.
(PID.TID 0000.0001)     Wall clock time:  0.0505914688
(PID.TID 0000.0001)          No. starts: 40
(PID.TID 0000.0001)           No. stops: 40
(PID.TID 0000.0001)   Seconds in section "BLOCKING_EXCHANGES  [FORWARD_STEP]":
(PID.TID 0000.0001)           User time:  0.075985074
(PID.TID 0000.0001)         System time:  0.
(PID.TID 0000.0001)     Wall clock time:  0.0791971684
(PID.TID 0000.0001)          No. starts: 40
(PID.TID 0000.0001)           No. stops: 40
(PID.TID 0000.0001)   Seconds in section "DO_STATEVARS_TAVE   [FORWARD_STEP]":
(PID.TID 0000.0001)           User time:  0.00199985504
(PID.TID 0000.0001)         System time:  0.
(PID.TID 0000.0001)     Wall clock time:  0.00159549713
(PID.TID 0000.0001)          No. starts: 40
(PID.TID 0000.0001)           No. stops: 40
(PID.TID 0000.0001)   Seconds in section "MONITOR             [FORWARD_STEP]":
(PID.TID 0000.0001)           User time:  1.621755
(PID.TID 0000.0001)         System time:  0.0109980106
(PID.TID 0000.0001)     Wall clock time:  1.63313794
(PID.TID 0000.0001)          No. starts: 40
(PID.TID 0000.0001)           No. stops: 40
(PID.TID 0000.0001)   Seconds in section "DO_THE_MODEL_IO     [FORWARD_STEP]":
(PID.TID 0000.0001)           User time:  0.421936154
(PID.TID 0000.0001)         System time:  0.015997991
(PID.TID 0000.0001)     Wall clock time:  0.467111349
(PID.TID 0000.0001)          No. starts: 40
(PID.TID 0000.0001)           No. stops: 40
(PID.TID 0000.0001)   Seconds in section "DO_WRITE_PICKUP     [FORWARD_STEP]":
(PID.TID 0000.0001)           User time:  0.0429930687
(PID.TID 0000.0001)         System time:  0.0469930023
(PID.TID 0000.0001)     Wall clock time:  0.103408575
(PID.TID 0000.0001)          No. starts: 40
(PID.TID 0000.0001)           No. stops: 40
(PID.TID 0000.0001) // ======================================================
(PID.TID 0000.0001) // Tile <-> Tile communication statistics
(PID.TID 0000.0001) // ======================================================
(PID.TID 0000.0001) // o Tile number: 000001
(PID.TID 0000.0001) //         No. X exchanges =              0
(PID.TID 0000.0001) //            Max. X spins =              0
(PID.TID 0000.0001) //            Min. X spins =     1000000000
(PID.TID 0000.0001) //          Total. X spins =              0
(PID.TID 0000.0001) //            Avg. X spins =       0.00E+00
(PID.TID 0000.0001) //         No. Y exchanges =              0
(PID.TID 0000.0001) //            Max. Y spins =              0
(PID.TID 0000.0001) //            Min. Y spins =     1000000000
(PID.TID 0000.0001) //          Total. Y spins =              0
(PID.TID 0000.0001) //            Avg. Y spins =       0.00E+00
(PID.TID 0000.0001) // o Tile number: 000002
(PID.TID 0000.0001) //         No. X exchanges =              0
(PID.TID 0000.0001) //            Max. X spins =              0
(PID.TID 0000.0001) //            Min. X spins =     1000000000
(PID.TID 0000.0001) //          Total. X spins =              0
(PID.TID 0000.0001) //            Avg. X spins =       0.00E+00
(PID.TID 0000.0001) //         No. Y exchanges =              0
(PID.TID 0000.0001) //            Max. Y spins =              0
(PID.TID 0000.0001) //            Min. Y spins =     1000000000
(PID.TID 0000.0001) //          Total. Y spins =              0
(PID.TID 0000.0001) //            Avg. Y spins =       0.00E+00
(PID.TID 0000.0001) // o Tile number: 000003
(PID.TID 0000.0001) //         No. X exchanges =              0
(PID.TID 0000.0001) //            Max. X spins =              0
(PID.TID 0000.0001) //            Min. X spins =     1000000000
(PID.TID 0000.0001) //          Total. X spins =              0
(PID.TID 0000.0001) //            Avg. X spins =       0.00E+00
(PID.TID 0000.0001) //         No. Y exchanges =              0
(PID.TID 0000.0001) //            Max. Y spins =              0
(PID.TID 0000.0001) //            Min. Y spins =     1000000000
(PID.TID 0000.0001) //          Total. Y spins =              0
(PID.TID 0000.0001) //            Avg. Y spins =       0.00E+00
(PID.TID 0000.0001) // o Tile number: 000004
(PID.TID 0000.0001) //         No. X exchanges =              0
(PID.TID 0000.0001) //            Max. X spins =              0
(PID.TID 0000.0001) //            Min. X spins =     1000000000
(PID.TID 0000.0001) //          Total. X spins =              0
(PID.TID 0000.0001) //            Avg. X spins =       0.00E+00
(PID.TID 0000.0001) //         No. Y exchanges =              0
(PID.TID 0000.0001) //            Max. Y spins =              0
(PID.TID 0000.0001) //            Min. Y spins =     1000000000
(PID.TID 0000.0001) //          Total. Y spins =              0
(PID.TID 0000.0001) //            Avg. Y spins =       0.00E+00
(PID.TID 0000.0001) // o Thread number: 000001
(PID.TID 0000.0001) //            No. barriers =          32804
(PID.TID 0000.0001) //      Max. barrier spins =              1
(PID.TID 0000.0001) //      Min. barrier spins =              1
(PID.TID 0000.0001) //     Total barrier spins =          32804
(PID.TID 0000.0001) //      Avg. barrier spins =       1.00E+00
