(PID.TID 0000.0001) 
(PID.TID 0000.0001) // ======================================================
(PID.TID 0000.0001) //                      MITgcm UV
(PID.TID 0000.0001) //                      =========
(PID.TID 0000.0001) // ======================================================
(PID.TID 0000.0001) // execution environment starting up...
(PID.TID 0000.0001) 
(PID.TID 0000.0001) // MITgcmUV version:  checkpoint57c_pre
(PID.TID 0000.0001) // Build user:        jmc
(PID.TID 0000.0001) // Build host:        faulks
(PID.TID 0000.0001) // Build date:        Thu Jan 27 09:57:49 EST 2005
(PID.TID 0000.0001) 
(PID.TID 0000.0001) // =======================================================
(PID.TID 0000.0001) // Execution Environment parameter file "eedata"
(PID.TID 0000.0001) // =======================================================
(PID.TID 0000.0001) ># Example "eedata" file
(PID.TID 0000.0001) ># Lines beginning "#" are comments
(PID.TID 0000.0001) ># nTx - No. threads per process in X
(PID.TID 0000.0001) ># nTy - No. threads per process in Y
(PID.TID 0000.0001) > &EEPARMS
(PID.TID 0000.0001) > nTx=1,nTy=1,
(PID.TID 0000.0001) > &
(PID.TID 0000.0001) ># Note: Some systems use & as the
(PID.TID 0000.0001) ># namelist terminator. Other systems
(PID.TID 0000.0001) ># use a / character (as shown here).
(PID.TID 0000.0001) 
(PID.TID 0000.0001) // =======================================================
(PID.TID 0000.0001) // Computational Grid Specification ( see files "SIZE.h" )
(PID.TID 0000.0001) //                                  ( and "eedata"       )
(PID.TID 0000.0001) // =======================================================
(PID.TID 0000.0001)      nPx =    1 ; /* No. processes in X */
(PID.TID 0000.0001)      nPy =    1 ; /* No. processes in Y */
(PID.TID 0000.0001)      nSx =    2 ; /* No. tiles in X per process */
(PID.TID 0000.0001)      nSy =    2 ; /* No. tiles in Y per process */
(PID.TID 0000.0001)      sNx =   30 ; /* Tile size in X */
(PID.TID 0000.0001)      sNy =   30 ; /* Tile size in Y */
(PID.TID 0000.0001)      OLx =    2 ; /* Tile overlap distance in X */
(PID.TID 0000.0001)      OLy =    2 ; /* Tile overlap distance in Y */
(PID.TID 0000.0001)      nTx =    1 ; /* No. threads in X per process */
(PID.TID 0000.0001)      nTy =    1 ; /* No. threads in Y per process */
(PID.TID 0000.0001)       Nr =    4 ; /* No. levels in the vertical   */
(PID.TID 0000.0001)       nX =   60 ; /* Total domain size in X ( = nPx*nSx*sNx ) */
(PID.TID 0000.0001)       nY =   60 ; /* Total domain size in Y ( = nPy*nSy*sNy ) */
(PID.TID 0000.0001)   nTiles =    4 ; /* Total no. tiles per process ( = nSx*nSy ) */
(PID.TID 0000.0001)   nProcs =    1 ; /* Total no. processes ( = nPx*nPy ) */
(PID.TID 0000.0001) nThreads =    1 ; /* Total no. threads per process ( = nTx*nTy ) */
(PID.TID 0000.0001) usingMPI =    F ; /* Flag used to control whether MPI is in use */
(PID.TID 0000.0001)                   /*  note: To execute a program with MPI calls */
(PID.TID 0000.0001)                   /*  it must be launched appropriately e.g     */
(PID.TID 0000.0001)                   /*  "mpirun -np 64 ......"                    */
(PID.TID 0000.0001) useCoupler=   F ; /* Flag used to control communications with */
(PID.TID 0000.0001)                   /*  other model components, through a coupler */
(PID.TID 0000.0001) 
(PID.TID 0000.0001) // ======================================================
(PID.TID 0000.0001) // Mapping of tiles to threads
(PID.TID 0000.0001) // ======================================================
(PID.TID 0000.0001) // -o- Thread   1, tiles (   1:   2,   1:   2)
(PID.TID 0000.0001) 
(PID.TID 0000.0001) // ======================================================
(PID.TID 0000.0001) // Tile <-> Tile connectvity table
(PID.TID 0000.0001) // ======================================================
(PID.TID 0000.0001) // Tile number: 000001 (process no. = 000001)
(PID.TID 0000.0001) //        WEST: Tile = 000002, Process = 000001, Comm = put
(PID.TID 0000.0001) //                bi = 000002, bj = 000001
(PID.TID 0000.0001) //        EAST: Tile = 000002, Process = 000001, Comm = put
(PID.TID 0000.0001) //                bi = 000002, bj = 000001
(PID.TID 0000.0001) //       SOUTH: Tile = 000003, Process = 000001, Comm = put
(PID.TID 0000.0001) //                bi = 000001, bj = 000002
(PID.TID 0000.0001) //       NORTH: Tile = 000003, Process = 000001, Comm = put
(PID.TID 0000.0001) //                bi = 000001, bj = 000002
(PID.TID 0000.0001) // Tile number: 000002 (process no. = 000001)
(PID.TID 0000.0001) //        WEST: Tile = 000001, Process = 000001, Comm = put
(PID.TID 0000.0001) //                bi = 000001, bj = 000001
(PID.TID 0000.0001) //        EAST: Tile = 000001, Process = 000001, Comm = put
(PID.TID 0000.0001) //                bi = 000001, bj = 000001
(PID.TID 0000.0001) //       SOUTH: Tile = 000004, Process = 000001, Comm = put
(PID.TID 0000.0001) //                bi = 000002, bj = 000002
(PID.TID 0000.0001) //       NORTH: Tile = 000004, Process = 000001, Comm = put
(PID.TID 0000.0001) //                bi = 000002, bj = 000002
(PID.TID 0000.0001) // Tile number: 000003 (process no. = 000001)
(PID.TID 0000.0001) //        WEST: Tile = 000004, Process = 000001, Comm = put
(PID.TID 0000.0001) //                bi = 000002, bj = 000002
(PID.TID 0000.0001) //        EAST: Tile = 000004, Process = 000001, Comm = put
(PID.TID 0000.0001) //                bi = 000002, bj = 000002
(PID.TID 0000.0001) //       SOUTH: Tile = 000001, Process = 000001, Comm = put
(PID.TID 0000.0001) //                bi = 000001, bj = 000001
(PID.TID 0000.0001) //       NORTH: Tile = 000001, Process = 000001, Comm = put
(PID.TID 0000.0001) //                bi = 000001, bj = 000001
(PID.TID 0000.0001) // Tile number: 000004 (process no. = 000001)
(PID.TID 0000.0001) //        WEST: Tile = 000003, Process = 000001, Comm = put
(PID.TID 0000.0001) //                bi = 000001, bj = 000002
(PID.TID 0000.0001) //        EAST: Tile = 000003, Process = 000001, Comm = put
(PID.TID 0000.0001) //                bi = 000001, bj = 000002
(PID.TID 0000.0001) //       SOUTH: Tile = 000002, Process = 000001, Comm = put
(PID.TID 0000.0001) //                bi = 000002, bj = 000001
(PID.TID 0000.0001) //       NORTH: Tile = 000002, Process = 000001, Comm = put
(PID.TID 0000.0001) //                bi = 000002, bj = 000001
(PID.TID 0000.0001) 
(PID.TID 0000.0001) // =======================================================
(PID.TID 0000.0001) // Model parameter file "data"
(PID.TID 0000.0001) // =======================================================
(PID.TID 0000.0001) ># Model parameters
(PID.TID 0000.0001) ># Continuous equation parameters
(PID.TID 0000.0001) > &PARM01
(PID.TID 0000.0001) > tRef=20.,10.,8.,6.,
(PID.TID 0000.0001) > sRef=10.,10.,10.,10.,
(PID.TID 0000.0001) > viscAz=1.E-2,
(PID.TID 0000.0001) > viscAh=4.E2,
(PID.TID 0000.0001) > no_slip_sides=.FALSE.,
(PID.TID 0000.0001) > no_slip_bottom=.TRUE.,
(PID.TID 0000.0001) > diffKhT=4.E2,
(PID.TID 0000.0001) > diffKzT=1.E-2,
(PID.TID 0000.0001) > f0=1.E-04,
(PID.TID 0000.0001) > beta=0.E-11,
(PID.TID 0000.0001) > tAlpha=2.E-4,
(PID.TID 0000.0001) > sBeta =0.,
(PID.TID 0000.0001) > gravity=9.81,
(PID.TID 0000.0001) > rigidLid=.FALSE.,
(PID.TID 0000.0001) > implicitFreeSurface=.TRUE.,
(PID.TID 0000.0001) > eosType='LINEAR',
(PID.TID 0000.0001) > readBinaryPrec=64,
(PID.TID 0000.0001) > &
(PID.TID 0000.0001) ># Elliptic solver parameters
(PID.TID 0000.0001) > &PARM02
(PID.TID 0000.0001) > cg2dMaxIters=1000,
(PID.TID 0000.0001) > cg2dTargetResidual=1.E-13,
(PID.TID 0000.0001) > &
(PID.TID 0000.0001) ># Time stepping parameters
(PID.TID 0000.0001) > &PARM03
(PID.TID 0000.0001) > startTime=0.,
(PID.TID 0000.0001) > endTime=48000.,
(PID.TID 0000.0001) > deltaTmom=1200.0,
(PID.TID 0000.0001) > deltaTtracer=1200.0,
(PID.TID 0000.0001) > abEps=0.1,
(PID.TID 0000.0001) > pChkptFreq=17000.0,
(PID.TID 0000.0001) > chkptFreq=0.0,
(PID.TID 0000.0001) > dumpFreq=2592000.0,
(PID.TID 0000.0001) > monitorFreq=1.,
(PID.TID 0000.0001) > &
(PID.TID 0000.0001) ># Gridding parameters
(PID.TID 0000.0001) > &PARM04
(PID.TID 0000.0001) > usingCartesianGrid=.TRUE.,
(PID.TID 0000.0001) > usingSphericalPolarGrid=.FALSE.,
(PID.TID 0000.0001) > delX=60*100.E03,
(PID.TID 0000.0001) > delY=60*100.E03,
(PID.TID 0000.0001) > delZ=500.,500.,500.,500.,
(PID.TID 0000.0001) > &
(PID.TID 0000.0001) > &PARM05
(PID.TID 0000.0001) > bathyFile='topog.box',
(PID.TID 0000.0001) > hydrogThetaFile=,
(PID.TID 0000.0001) > hydrogSaltFile=,
(PID.TID 0000.0001) > zonalWindFile=,
(PID.TID 0000.0001) > meridWindFile=,
(PID.TID 0000.0001) > pLoadFile='pLoad.bin',
(PID.TID 0000.0001) > &
(PID.TID 0000.0001) 
(PID.TID 0000.0001) S/R INI_PARMS ; starts to read PARM01
(PID.TID 0000.0001) S/R INI_PARMS ; read PARM01 : OK
(PID.TID 0000.0001) S/R INI_PARMS ; starts to read PARM02
(PID.TID 0000.0001) S/R INI_PARMS ; read PARM02 : OK
(PID.TID 0000.0001) S/R INI_PARMS ; starts to read PARM03
(PID.TID 0000.0001) S/R INI_PARMS ; read PARM03 : OK
(PID.TID 0000.0001) S/R INI_PARMS ; starts to read PARM04
(PID.TID 0000.0001) S/R INI_PARMS ; read PARM04 : OK
(PID.TID 0000.0001) S/R INI_PARMS ; starts to read PARM05
(PID.TID 0000.0001) S/R INI_PARMS ; read PARM05 : OK
(PID.TID 0000.0001)  PACKAGES_BOOT: opening data.pkg
(PID.TID 0000.0001)  OPEN_COPY_DATA_FILE: opening file data.pkg
(PID.TID 0000.0001) // =======================================================
(PID.TID 0000.0001) // Parameter file "data.pkg"
(PID.TID 0000.0001) // =======================================================
(PID.TID 0000.0001) ># Packages
(PID.TID 0000.0001) > &PACKAGES
(PID.TID 0000.0001) > &
(PID.TID 0000.0001) 
(PID.TID 0000.0001)  PACKAGES_BOOT: finished reading data.pkg
(PID.TID 0000.0001) %MON XC_max                       =   5.9500000000000E+06
(PID.TID 0000.0001) %MON XC_min                       =   5.0000000000000E+04
(PID.TID 0000.0001) %MON XC_mean                      =   3.0000000000000E+06
(PID.TID 0000.0001) %MON XC_sd                        =   1.7318102282487E+06
(PID.TID 0000.0001) %MON XG_max                       =   5.9000000000000E+06
(PID.TID 0000.0001) %MON XG_min                       =   1.0000000000000E+05
(PID.TID 0000.0001) %MON XG_mean                      =   3.0000000000000E+06
(PID.TID 0000.0001) %MON XG_sd                        =   1.7029386365926E+06
(PID.TID 0000.0001) %MON DXC_max                      =   1.0000000000000E+05
(PID.TID 0000.0001) %MON DXC_min                      =   1.0000000000000E+05
(PID.TID 0000.0001) %MON DXC_mean                     =   1.0000000000000E+05
(PID.TID 0000.0001) %MON DXC_sd                       =   0.0000000000000E+00
(PID.TID 0000.0001) %MON DXF_max                      =   1.0000000000000E+05
(PID.TID 0000.0001) %MON DXF_min                      =   1.0000000000000E+05
(PID.TID 0000.0001) %MON DXF_mean                     =   1.0000000000000E+05
(PID.TID 0000.0001) %MON DXF_sd                       =   0.0000000000000E+00
(PID.TID 0000.0001) %MON DXG_max                      =   1.0000000000000E+05
(PID.TID 0000.0001) %MON DXG_min                      =   1.0000000000000E+05
(PID.TID 0000.0001) %MON DXG_mean                     =   1.0000000000000E+05
(PID.TID 0000.0001) %MON DXG_sd                       =   0.0000000000000E+00
(PID.TID 0000.0001) %MON DXV_max                      =   1.0000000000000E+05
(PID.TID 0000.0001) %MON DXV_min                      =   1.0000000000000E+05
(PID.TID 0000.0001) %MON DXV_mean                     =   1.0000000000000E+05
(PID.TID 0000.0001) %MON DXV_sd                       =   0.0000000000000E+00
(PID.TID 0000.0001) %MON YC_max                       =   5.9500000000000E+06
(PID.TID 0000.0001) %MON YC_min                       =   5.0000000000000E+04
(PID.TID 0000.0001) %MON YC_mean                      =   3.0000000000000E+06
(PID.TID 0000.0001) %MON YC_sd                        =   1.7318102282487E+06
(PID.TID 0000.0001) %MON YG_max                       =   5.9000000000000E+06
(PID.TID 0000.0001) %MON YG_min                       =   1.0000000000000E+05
(PID.TID 0000.0001) %MON YG_mean                      =   3.0000000000000E+06
(PID.TID 0000.0001) %MON YG_sd                        =   1.7029386365926E+06
(PID.TID 0000.0001) %MON DYC_max                      =   1.0000000000000E+05
(PID.TID 0000.0001) %MON DYC_min                      =   1.0000000000000E+05
(PID.TID 0000.0001) %MON DYC_mean                     =   1.0000000000000E+05
(PID.TID 0000.0001) %MON DYC_sd                       =   0.0000000000000E+00
(PID.TID 0000.0001) %MON DYF_max                      =   1.0000000000000E+05
(PID.TID 0000.0001) %MON DYF_min                      =   1.0000000000000E+05
(PID.TID 0000.0001) %MON DYF_mean                     =   1.0000000000000E+05
(PID.TID 0000.0001) %MON DYF_sd                       =   0.0000000000000E+00
(PID.TID 0000.0001) %MON DYG_max                      =   1.0000000000000E+05
(PID.TID 0000.0001) %MON DYG_min                      =   1.0000000000000E+05
(PID.TID 0000.0001) %MON DYG_mean                     =   1.0000000000000E+05
(PID.TID 0000.0001) %MON DYG_sd                       =   0.0000000000000E+00
(PID.TID 0000.0001) %MON DYU_max                      =   1.0000000000000E+05
(PID.TID 0000.0001) %MON DYU_min                      =   1.0000000000000E+05
(PID.TID 0000.0001) %MON DYU_mean                     =   1.0000000000000E+05
(PID.TID 0000.0001) %MON DYU_sd                       =   0.0000000000000E+00
(PID.TID 0000.0001) %MON RA_max                       =   1.0000000000000E+10
(PID.TID 0000.0001) %MON RA_min                       =   1.0000000000000E+10
(PID.TID 0000.0001) %MON RA_mean                      =   1.0000000000000E+10
(PID.TID 0000.0001) %MON RA_sd                        =   0.0000000000000E+00
(PID.TID 0000.0001) %MON RAW_max                      =   1.0000000000000E+10
(PID.TID 0000.0001) %MON RAW_min                      =   1.0000000000000E+10
(PID.TID 0000.0001) %MON RAW_mean                     =   1.0000000000000E+10
(PID.TID 0000.0001) %MON RAW_sd                       =   0.0000000000000E+00
(PID.TID 0000.0001) %MON RAS_max                      =   1.0000000000000E+10
(PID.TID 0000.0001) %MON RAS_min                      =   1.0000000000000E+10
(PID.TID 0000.0001) %MON RAS_mean                     =   1.0000000000000E+10
(PID.TID 0000.0001) %MON RAS_sd                       =   0.0000000000000E+00
(PID.TID 0000.0001) %MON RAZ_max                      =   1.0000000000000E+10
(PID.TID 0000.0001) %MON RAZ_min                      =   1.0000000000000E+10
(PID.TID 0000.0001) %MON RAZ_mean                     =   1.0000000000000E+10
(PID.TID 0000.0001) %MON RAZ_sd                       =   0.0000000000000E+00
(PID.TID 0000.0001)  MDSREADFIELD: opening global file: topog.box
(PID.TID 0000.0001) // =======================================================
(PID.TID 0000.0001) // Field Model R_low (ini_masks_etc) at iteration          1
(PID.TID 0000.0001) // CMIN =         -2.000000000000000E+03
(PID.TID 0000.0001) // CMAX =         -2.000000000000000E+03
(PID.TID 0000.0001) // CINT =          0.000000000000000E+00
(PID.TID 0000.0001) // SYMBOLS (CMIN->CMAX): -abcdefghijklmnopqrstuvwxyz+
(PID.TID 0000.0001) //                  0.0: .
(PID.TID 0000.0001) // RANGE I (Lo:Hi:Step):(  -1:  62:   1)
(PID.TID 0000.0001) // RANGE J (Lo:Hi:Step):(  62:  -1:  -1)
(PID.TID 0000.0001) // RANGE K (Lo:Hi:Step):(   1:   1:   1)
(PID.TID 0000.0001) // =======================================================
(PID.TID 0000.0001) // =======================================================
(PID.TID 0000.0001) // END OF FIELD                                          =
(PID.TID 0000.0001) // =======================================================
(PID.TID 0000.0001) 
(PID.TID 0000.0001) // =======================================================
(PID.TID 0000.0001) // Field Model Ro_surf (ini_masks_etc) at iteration          1
(PID.TID 0000.0001) // CMIN =          1.000000000000000E+32
(PID.TID 0000.0001) // CMAX =         -1.000000000000000E+32
(PID.TID 0000.0001) // CINT =          0.000000000000000E+00
(PID.TID 0000.0001) // SYMBOLS (CMIN->CMAX): -abcdefghijklmnopqrstuvwxyz+
(PID.TID 0000.0001) //                  0.0: .
(PID.TID 0000.0001) // RANGE I (Lo:Hi:Step):(  -1:  62:   1)
(PID.TID 0000.0001) // RANGE J (Lo:Hi:Step):(  62:  -1:  -1)
(PID.TID 0000.0001) // RANGE K (Lo:Hi:Step):(   1:   1:   1)
(PID.TID 0000.0001) // =======================================================
(PID.TID 0000.0001) // =======================================================
(PID.TID 0000.0001) // END OF FIELD                                          =
(PID.TID 0000.0001) // =======================================================
(PID.TID 0000.0001) 
(PID.TID 0000.0001) // =======================================================
(PID.TID 0000.0001) // Field hFacC at iteration          1
(PID.TID 0000.0001) // CMIN =          1.000000000000000E+00
(PID.TID 0000.0001) // CMAX =          1.000000000000000E+00
(PID.TID 0000.0001) // CINT =          0.000000000000000E+00
(PID.TID 0000.0001) // SYMBOLS (CMIN->CMAX): -abcdefghijklmnopqrstuvwxyz+
(PID.TID 0000.0001) //                  0.0: .
(PID.TID 0000.0001) // RANGE I (Lo:Hi:Step):(  -1:  62:   1)
(PID.TID 0000.0001) // RANGE J (Lo:Hi:Step):(  62:  -1:  -1)
(PID.TID 0000.0001) // RANGE K (Lo:Hi:Step):(   1:   1:   1)
(PID.TID 0000.0001) // =======================================================
(PID.TID 0000.0001) // =======================================================
(PID.TID 0000.0001) // END OF FIELD                                          =
(PID.TID 0000.0001) // =======================================================
(PID.TID 0000.0001) 
(PID.TID 0000.0001) // =======================================================
(PID.TID 0000.0001) // Field hFacW at iteration          1
(PID.TID 0000.0001) // CMIN =          1.000000000000000E+00
(PID.TID 0000.0001) // CMAX =          1.000000000000000E+00
(PID.TID 0000.0001) // CINT =          0.000000000000000E+00
(PID.TID 0000.0001) // SYMBOLS (CMIN->CMAX): -abcdefghijklmnopqrstuvwxyz+
(PID.TID 0000.0001) //                  0.0: .
(PID.TID 0000.0001) // RANGE I (Lo:Hi:Step):(  -1:  62:   1)
(PID.TID 0000.0001) // RANGE J (Lo:Hi:Step):(  62:  -1:  -1)
(PID.TID 0000.0001) // RANGE K (Lo:Hi:Step):(   1:   1:   1)
(PID.TID 0000.0001) // =======================================================
(PID.TID 0000.0001) // =======================================================
(PID.TID 0000.0001) // END OF FIELD                                          =
(PID.TID 0000.0001) // =======================================================
(PID.TID 0000.0001) 
(PID.TID 0000.0001) // =======================================================
(PID.TID 0000.0001) // Field hFacS at iteration          1
(PID.TID 0000.0001) // CMIN =          1.000000000000000E+00
(PID.TID 0000.0001) // CMAX =          1.000000000000000E+00
(PID.TID 0000.0001) // CINT =          0.000000000000000E+00
(PID.TID 0000.0001) // SYMBOLS (CMIN->CMAX): -abcdefghijklmnopqrstuvwxyz+
(PID.TID 0000.0001) //                  0.0: .
(PID.TID 0000.0001) // RANGE I (Lo:Hi:Step):(  -1:  62:   1)
(PID.TID 0000.0001) // RANGE J (Lo:Hi:Step):(  62:  -1:  -1)
(PID.TID 0000.0001) // RANGE K (Lo:Hi:Step):(   1:   1:   1)
(PID.TID 0000.0001) // =======================================================
(PID.TID 0000.0001) // =======================================================
(PID.TID 0000.0001) // END OF FIELD                                          =
(PID.TID 0000.0001) // =======================================================
(PID.TID 0000.0001) 
(PID.TID 0000.0001) 
(PID.TID 0000.0001) // ===================================
(PID.TID 0000.0001) // GAD parameters :
(PID.TID 0000.0001) // ===================================
(PID.TID 0000.0001) tempAdvScheme =   /* Temp. Horiz.Advection scheme selector */
(PID.TID 0000.0001)                       2
(PID.TID 0000.0001)     ;
(PID.TID 0000.0001) tempVertAdvScheme =   /* Temp. Vert. Advection scheme selector */
(PID.TID 0000.0001)                       2
(PID.TID 0000.0001)     ;
(PID.TID 0000.0001) tempMultiDimAdvec =   /* use Muti-Dim Advec method for Temp */
(PID.TID 0000.0001)                   F
(PID.TID 0000.0001)     ;
(PID.TID 0000.0001) tempAdamsBashforth =   /* use Adams-Bashforth time-stepping for Temp */
(PID.TID 0000.0001)                   T
(PID.TID 0000.0001)     ;
(PID.TID 0000.0001) saltAdvScheme =   /* Salt. Horiz.advection scheme selector */
(PID.TID 0000.0001)                       2
(PID.TID 0000.0001)     ;
(PID.TID 0000.0001) saltVertAdvScheme =   /* Salt. Vert. Advection scheme selector */
(PID.TID 0000.0001)                       2
(PID.TID 0000.0001)     ;
(PID.TID 0000.0001) saltMultiDimAdvec =   /* use Muti-Dim Advec method for Salt */
(PID.TID 0000.0001)                   F
(PID.TID 0000.0001)     ;
(PID.TID 0000.0001) saltAdamsBashforth =   /* use Adams-Bashforth time-stepping for Salt */
(PID.TID 0000.0001)                   T
(PID.TID 0000.0001)     ;
(PID.TID 0000.0001) // ===================================
(PID.TID 0000.0001) %MON fCori_max                    =   1.0000000000000E-04
(PID.TID 0000.0001) %MON fCori_min                    =   1.0000000000000E-04
(PID.TID 0000.0001) %MON fCori_mean                   =   1.0000000000000E-04
(PID.TID 0000.0001) %MON fCori_sd                     =   1.7211709488207E-18
(PID.TID 0000.0001) %MON fCoriG_max                   =   1.0000000000000E-04
(PID.TID 0000.0001) %MON fCoriG_min                   =   1.0000000000000E-04
(PID.TID 0000.0001) %MON fCoriG_mean                  =   1.0000000000000E-04
(PID.TID 0000.0001) %MON fCoriG_sd                    =   1.7211709488207E-18
(PID.TID 0000.0001) %MON fCoriCos_max                 =   0.0000000000000E+00
(PID.TID 0000.0001) %MON fCoriCos_min                 =   0.0000000000000E+00
(PID.TID 0000.0001) %MON fCoriCos_mean                =   0.0000000000000E+00
(PID.TID 0000.0001) %MON fCoriCos_sd                  =   0.0000000000000E+00
(PID.TID 0000.0001) // CG2D normalisation factor =          0.4999999999999999019881236E-03
(PID.TID 0000.0001) 
(PID.TID 0000.0001) CONFIG_CHECK: OK
(PID.TID 0000.0001) // =======================================================
(PID.TID 0000.0001) // Model configuration
(PID.TID 0000.0001) // =======================================================
(PID.TID 0000.0001) //
(PID.TID 0000.0001) // "Physical" paramters ( PARM01 in namelist )
(PID.TID 0000.0001) //
(PID.TID 0000.0001) buoyancyRelation = OCEANIC
(PID.TID 0000.0001) fluidIsAir  =  /* fluid major constituent is Air */
(PID.TID 0000.0001)                   F
(PID.TID 0000.0001)     ;
(PID.TID 0000.0001) fluidIsWater=  /* fuild major constituent is Water */
(PID.TID 0000.0001)                   T
(PID.TID 0000.0001)     ;
(PID.TID 0000.0001) usingPCoords =  /* use p (or p*) vertical coordinate */
(PID.TID 0000.0001)                   F
(PID.TID 0000.0001)     ;
(PID.TID 0000.0001) usingZCoords =  /* use z (or z*) vertical coordinate */
(PID.TID 0000.0001)                   T
(PID.TID 0000.0001)     ;
(PID.TID 0000.0001) tRef =   /* Reference temperature profile ( oC or oK ) */
(PID.TID 0000.0001)                 2.000000000000000E+01,      /* K =  1 */
(PID.TID 0000.0001)                 1.000000000000000E+01,      /* K =  2 */
(PID.TID 0000.0001)                 8.000000000000000E+00,      /* K =  3 */
(PID.TID 0000.0001)                 6.000000000000000E+00       /* K =  4 */
(PID.TID 0000.0001)     ;
(PID.TID 0000.0001) sRef =   /* Reference salinity profile ( ppt ) */
(PID.TID 0000.0001)     4 @  1.000000000000000E+01              /* K =  1:  4 */
(PID.TID 0000.0001)     ;
(PID.TID 0000.0001) viscAh =   /* Lateral eddy viscosity ( m^2/s ) */
(PID.TID 0000.0001)                 4.000000000000000E+02
(PID.TID 0000.0001)     ;
(PID.TID 0000.0001) viscAhMax =   /* Maximum lateral eddy viscosity ( m^2/s ) */
(PID.TID 0000.0001)                 1.000000000000000E+21
(PID.TID 0000.0001)     ;
(PID.TID 0000.0001) viscAhGrid =   /* Grid dependent lateral eddy viscosity ( non-dim. ) */
(PID.TID 0000.0001)                 0.000000000000000E+00
(PID.TID 0000.0001)     ;
(PID.TID 0000.0001) viscC2leith =   /* Leith harmonic viscosity factor ( non-dom. ) */
(PID.TID 0000.0001)                 0.000000000000000E+00
(PID.TID 0000.0001)     ;
(PID.TID 0000.0001) viscA4 =   /* Lateral biharmonic viscosity ( m^4/s ) */
(PID.TID 0000.0001)                 0.000000000000000E+00
(PID.TID 0000.0001)     ;
(PID.TID 0000.0001) viscA4Max =   /* Maximum biharmonic viscosity ( m^2/s ) */
(PID.TID 0000.0001)                 1.000000000000000E+21
(PID.TID 0000.0001)     ;
(PID.TID 0000.0001) viscA4Grid =   /* Grid dependent biharmonic viscosity ( non-dim. ) */
(PID.TID 0000.0001)                 0.000000000000000E+00
(PID.TID 0000.0001)     ;
(PID.TID 0000.0001) viscC4leith =   /* Leith biharmonic viscosity factor ( non-dom. ) */
(PID.TID 0000.0001)                 0.000000000000000E+00
(PID.TID 0000.0001)     ;
(PID.TID 0000.0001) no_slip_sides =  /* Viscous BCs: No-slip sides */
(PID.TID 0000.0001)                   F
(PID.TID 0000.0001)     ;
(PID.TID 0000.0001) viscAr =   /* Vertical eddy viscosity ( units of r^2/s ) */
(PID.TID 0000.0001)                 1.000000000000000E-02
(PID.TID 0000.0001)     ;
(PID.TID 0000.0001) no_slip_bottom =  /* Viscous BCs: No-slip bottom */
(PID.TID 0000.0001)                   T
(PID.TID 0000.0001)     ;
(PID.TID 0000.0001) diffKhT =   /* Laplacian diffusion of heat laterally ( m^2/s ) */
(PID.TID 0000.0001)                 4.000000000000000E+02
(PID.TID 0000.0001)     ;
(PID.TID 0000.0001) diffK4T =   /* Bihaarmonic diffusion of heat laterally ( m^4/s ) */
(PID.TID 0000.0001)                 0.000000000000000E+00
(PID.TID 0000.0001)     ;
(PID.TID 0000.0001) diffKhS =   /* Laplacian diffusion of salt laterally ( m^2/s ) */
(PID.TID 0000.0001)                 0.000000000000000E+00
(PID.TID 0000.0001)     ;
(PID.TID 0000.0001) diffK4S =   /* Bihaarmonic diffusion of salt laterally ( m^4/s ) */
(PID.TID 0000.0001)                 0.000000000000000E+00
(PID.TID 0000.0001)     ;
(PID.TID 0000.0001) diffKrNrT = /* vertical profile of vertical diffusion of Temp ( m^2/s )*/
(PID.TID 0000.0001)     4 @  1.000000000000000E-02              /* K =  1:  4 */
(PID.TID 0000.0001)     ;
(PID.TID 0000.0001) diffKrNrS = /* vertical profile of vertical diffusion of Salt ( m^2/s )*/
(PID.TID 0000.0001)     4 @  0.000000000000000E+00              /* K =  1:  4 */
(PID.TID 0000.0001)     ;
(PID.TID 0000.0001) diffKrBL79surf =   /* Surface diffusion for Bryan and Lewis 1979 ( m^2/s ) */
(PID.TID 0000.0001)                 0.000000000000000E+00
(PID.TID 0000.0001)     ;
(PID.TID 0000.0001) diffKrBL79deep =   /* Deep diffusion for Bryan and Lewis 1979 ( m^2/s ) */
(PID.TID 0000.0001)                 0.000000000000000E+00
(PID.TID 0000.0001)     ;
(PID.TID 0000.0001) diffKrBL79scl =   /* Depth scale for Bryan and Lewis 1979 ( m ) */
(PID.TID 0000.0001)                 2.000000000000000E+02
(PID.TID 0000.0001)     ;
(PID.TID 0000.0001) diffKrBL79Ho =   /* Turning depth for Bryan and Lewis 1979 ( m ) */
(PID.TID 0000.0001)                -2.000000000000000E+03
(PID.TID 0000.0001)     ;
(PID.TID 0000.0001)  Equation of State : eosType = LINEAR
(PID.TID 0000.0001) tAlpha =   /* Linear EOS thermal expansion coefficient ( 1/degree ) */
(PID.TID 0000.0001)                 2.000000000000000E-04
(PID.TID 0000.0001)     ;
(PID.TID 0000.0001) sBeta =   /* Linear EOS haline contraction coefficient ( 1/ppt ) */
(PID.TID 0000.0001)                 0.000000000000000E+00
(PID.TID 0000.0001)     ;
(PID.TID 0000.0001) rhonil =   /* Reference density ( kg/m^3 ) */
(PID.TID 0000.0001)                 9.998000000000000E+02
(PID.TID 0000.0001)     ;
(PID.TID 0000.0001) rhoConst =   /* Reference density ( kg/m^3 ) */
(PID.TID 0000.0001)                 9.998000000000000E+02
(PID.TID 0000.0001)     ;
(PID.TID 0000.0001) rhoConstFresh =   /* Reference density ( kg/m^3 ) */
(PID.TID 0000.0001)                 9.998000000000000E+02
(PID.TID 0000.0001)     ;
(PID.TID 0000.0001) gravity =   /* Gravitational acceleration ( m/s^2 ) */
(PID.TID 0000.0001)                 9.810000000000000E+00
(PID.TID 0000.0001)     ;
(PID.TID 0000.0001) gBaro =   /* Barotropic gravity ( m/s^2 ) */
(PID.TID 0000.0001)                 9.810000000000000E+00
(PID.TID 0000.0001)     ;
(PID.TID 0000.0001) rotationPeriod =   /* Rotation Period ( s ) */
(PID.TID 0000.0001)                 8.640000000000000E+04
(PID.TID 0000.0001)     ;
(PID.TID 0000.0001) omega =   /* Angular velocity ( rad/s ) */
(PID.TID 0000.0001)                 7.272205216643040E-05
(PID.TID 0000.0001)     ;
(PID.TID 0000.0001) f0 =   /* Reference coriolis parameter ( 1/s ) */
(PID.TID 0000.0001)                 1.000000000000000E-04
(PID.TID 0000.0001)     ;
(PID.TID 0000.0001) beta =   /* Beta ( 1/(m.s) ) */
(PID.TID 0000.0001)                 0.000000000000000E+00
(PID.TID 0000.0001)     ;
(PID.TID 0000.0001) freeSurfFac =   /* Implicit free surface factor */
(PID.TID 0000.0001)                 1.000000000000000E+00
(PID.TID 0000.0001)     ;
(PID.TID 0000.0001) implicitFreeSurface =   /* Implicit free surface on/off flag */
(PID.TID 0000.0001)                   T
(PID.TID 0000.0001)     ;
(PID.TID 0000.0001) rigidLid =   /* Rigid lid on/off flag */
(PID.TID 0000.0001)                   F
(PID.TID 0000.0001)     ;
(PID.TID 0000.0001) implicSurfPress =   /* Surface Pressure implicit factor (0-1)*/
(PID.TID 0000.0001)                 1.000000000000000E+00
(PID.TID 0000.0001)     ;
(PID.TID 0000.0001) implicDiv2Dflow =   /* Barot. Flow Div. implicit factor (0-1)*/
(PID.TID 0000.0001)                 1.000000000000000E+00
(PID.TID 0000.0001)     ;
(PID.TID 0000.0001) exactConserv =   /* Exact Volume Conservation on/off flag*/
(PID.TID 0000.0001)                   F
(PID.TID 0000.0001)     ;
(PID.TID 0000.0001) uniformLin_PhiSurf =   /* use uniform Bo_surf on/off flag*/
(PID.TID 0000.0001)                   T
(PID.TID 0000.0001)     ;
(PID.TID 0000.0001) nonlinFreeSurf =   /* Non-linear Free Surf. options (-1,0,1,2,3)*/
(PID.TID 0000.0001)                       0
(PID.TID 0000.0001)     ;
(PID.TID 0000.0001)      -1,0= Off ; 1,2,3= On, 2=+rescale gU,gV, 3=+update cg2d solv.
(PID.TID 0000.0001) hFacInf =   /* lower threshold for hFac (nonlinFreeSurf only)*/
(PID.TID 0000.0001)                 2.000000000000000E-01
(PID.TID 0000.0001)     ;
(PID.TID 0000.0001) hFacSup =   /* upper threshold for hFac (nonlinFreeSurf only)*/
(PID.TID 0000.0001)                 2.000000000000000E+00
(PID.TID 0000.0001)     ;
(PID.TID 0000.0001) select_rStar =   /* r* Coordinate options (not yet implemented)*/
(PID.TID 0000.0001)                       0
(PID.TID 0000.0001)     ;
(PID.TID 0000.0001) useRealFreshWaterFlux =   /* Real Fresh Water Flux on/off flag*/
(PID.TID 0000.0001)                   F
(PID.TID 0000.0001)     ;
(PID.TID 0000.0001) convertFW2Salt = /* convert F.W. Flux to Salt Flux (-1=use local S)(ppt)*/
(PID.TID 0000.0001)                 3.500000000000000E+01
(PID.TID 0000.0001)     ;
(PID.TID 0000.0001) nonHydrostatic =  /* Non-Hydrostatic on/off flag */
(PID.TID 0000.0001)                   F
(PID.TID 0000.0001)     ;
(PID.TID 0000.0001) momStepping =  /* Momentum equation on/off flag */
(PID.TID 0000.0001)                   T
(PID.TID 0000.0001)     ;
(PID.TID 0000.0001) momAdvection =  /* Momentum advection on/off flag */
(PID.TID 0000.0001)                   T
(PID.TID 0000.0001)     ;
(PID.TID 0000.0001) momViscosity =  /* Momentum viscosity on/off flag */
(PID.TID 0000.0001)                   T
(PID.TID 0000.0001)     ;
(PID.TID 0000.0001) momImplVertAdv =/* Momentum implicit vert. advection on/off*/
(PID.TID 0000.0001)                   F
(PID.TID 0000.0001)     ;
(PID.TID 0000.0001) implicitViscosity = /* Implicit viscosity on/off flag */
(PID.TID 0000.0001)                   F
(PID.TID 0000.0001)     ;
(PID.TID 0000.0001) useCoriolis =  /* Coriolis on/off flag */
(PID.TID 0000.0001)                   T
(PID.TID 0000.0001)     ;
(PID.TID 0000.0001) useCDscheme =  /* CD scheme on/off flag */
(PID.TID 0000.0001)                   F
(PID.TID 0000.0001)     ;
(PID.TID 0000.0001) useJamartWetPoints= /* Coriolis WetPoints method flag */
(PID.TID 0000.0001)                   F
(PID.TID 0000.0001)     ;
(PID.TID 0000.0001) useJamartMomAdv= /* V.I. Non-linear terms Jamart flag */
(PID.TID 0000.0001)                   F
(PID.TID 0000.0001)     ;
(PID.TID 0000.0001) SadournyCoriolis= /* Sadourny Coriolis discr. flag */
(PID.TID 0000.0001)                   F
(PID.TID 0000.0001)     ;
(PID.TID 0000.0001) upwindVorticity= /* Upwind bias vorticity flag */
(PID.TID 0000.0001)                   F
(PID.TID 0000.0001)     ;
(PID.TID 0000.0001) useAbsVorticity= /* Work with f+zeta in Coriolis */
(PID.TID 0000.0001)                   F
(PID.TID 0000.0001)     ;
(PID.TID 0000.0001) highOrderVorticity= /* High order interp. of vort. flag */
(PID.TID 0000.0001)                   F
(PID.TID 0000.0001)     ;
(PID.TID 0000.0001) momForcing =  /* Momentum forcing on/off flag */
(PID.TID 0000.0001)                   T
(PID.TID 0000.0001)     ;
(PID.TID 0000.0001) momPressureForcing =  /* Momentum pressure term on/off flag */
(PID.TID 0000.0001)                   T
(PID.TID 0000.0001)     ;
(PID.TID 0000.0001) staggerTimeStep =   /* Stagger time stepping on/off flag */
(PID.TID 0000.0001)                   F
(PID.TID 0000.0001)     ;
(PID.TID 0000.0001) multiDimAdvection =   /* enable/disable Multi-Dim Advection */
(PID.TID 0000.0001)                   T
(PID.TID 0000.0001)     ;
(PID.TID 0000.0001) useMultiDimAdvec =   /* Multi-Dim Advection is/is-not used */
(PID.TID 0000.0001)                   F
(PID.TID 0000.0001)     ;
(PID.TID 0000.0001) implicitDiffusion =/* Implicit Diffusion on/off flag */
(PID.TID 0000.0001)                   F
(PID.TID 0000.0001)     ;
(PID.TID 0000.0001) tempStepping =  /* Temperature equation on/off flag */
(PID.TID 0000.0001)                   T
(PID.TID 0000.0001)     ;
(PID.TID 0000.0001) tempAdvection=  /* Temperature advection on/off flag */
(PID.TID 0000.0001)                   T
(PID.TID 0000.0001)     ;
(PID.TID 0000.0001) tempImplVertAdv =/* Temp. implicit vert. advection on/off */
(PID.TID 0000.0001)                   F
(PID.TID 0000.0001)     ;
(PID.TID 0000.0001) tempForcing  =  /* Temperature forcing on/off flag */
(PID.TID 0000.0001)                   T
(PID.TID 0000.0001)     ;
(PID.TID 0000.0001) saltStepping =  /* Salinity equation on/off flag */
(PID.TID 0000.0001)                   T
(PID.TID 0000.0001)     ;
(PID.TID 0000.0001) saltAdvection=  /* Salinity advection on/off flag */
(PID.TID 0000.0001)                   T
(PID.TID 0000.0001)     ;
(PID.TID 0000.0001) saltImplVertAdv =/* Sali. implicit vert. advection on/off */
(PID.TID 0000.0001)                   F
(PID.TID 0000.0001)     ;
(PID.TID 0000.0001) saltForcing  =  /* Salinity forcing on/off flag */
(PID.TID 0000.0001)                   T
(PID.TID 0000.0001)     ;
(PID.TID 0000.0001) //
(PID.TID 0000.0001) // Elliptic solver(s) paramters ( PARM02 in namelist )
(PID.TID 0000.0001) //
(PID.TID 0000.0001) cg2dMaxIters =   /* Upper limit on 2d con. grad iterations  */
(PID.TID 0000.0001)                    1000
(PID.TID 0000.0001)     ;
(PID.TID 0000.0001) cg2dChkResFreq =   /* 2d con. grad convergence test frequency */
(PID.TID 0000.0001)                       1
(PID.TID 0000.0001)     ;
(PID.TID 0000.0001) cg2dTargetResidual =   /* 2d con. grad target residual  */
(PID.TID 0000.0001)                 1.000000000000000E-13
(PID.TID 0000.0001)     ;
(PID.TID 0000.0001) cg2dTargetResWunit =   /* CG2d target residual [W units] */
(PID.TID 0000.0001)                -1.000000000000000E+00
(PID.TID 0000.0001)     ;
(PID.TID 0000.0001) cg2dPreCondFreq =   /* Freq. for updating cg2d preconditioner */
(PID.TID 0000.0001)                       1
(PID.TID 0000.0001)     ;
(PID.TID 0000.0001) //
(PID.TID 0000.0001) // Time stepping paramters ( PARM03 in namelist )
(PID.TID 0000.0001) //
(PID.TID 0000.0001) nIter0 =   /* Base timestep number  */
(PID.TID 0000.0001)                       0
(PID.TID 0000.0001)     ;
(PID.TID 0000.0001) nTimeSteps =   /* Number of timesteps */
(PID.TID 0000.0001)                      40
(PID.TID 0000.0001)     ;
(PID.TID 0000.0001) deltatTmom =   /* Momentum equation timestep ( s ) */
(PID.TID 0000.0001)                 1.200000000000000E+03
(PID.TID 0000.0001)     ;
(PID.TID 0000.0001) deltaTfreesurf =   /* FreeSurface equation timestep ( s ) */
(PID.TID 0000.0001)                 1.200000000000000E+03
(PID.TID 0000.0001)     ;
(PID.TID 0000.0001) dTtracerLev =   /* Tracer equation timestep ( s ) */
(PID.TID 0000.0001)     4 @  1.200000000000000E+03              /* K =  1:  4 */
(PID.TID 0000.0001)     ;
(PID.TID 0000.0001) deltatTClock  =   /* Model clock timestep ( s ) */
(PID.TID 0000.0001)                 1.200000000000000E+03
(PID.TID 0000.0001)     ;
(PID.TID 0000.0001) cAdjFreq =   /* Convective adjustment interval ( s ) */
(PID.TID 0000.0001)                 0.000000000000000E+00
(PID.TID 0000.0001)     ;
(PID.TID 0000.0001) forcing_In_AB =   /* put T,S Forcing in Adams-Bash. stepping */
(PID.TID 0000.0001)                   T
(PID.TID 0000.0001)     ;
(PID.TID 0000.0001) abeps =   /* Adams-Bashforth stabilizing weight */
(PID.TID 0000.0001)                 1.000000000000000E-01
(PID.TID 0000.0001)     ;
(PID.TID 0000.0001) startTime =   /* Run start time ( s ). */
(PID.TID 0000.0001)                 0.000000000000000E+00
(PID.TID 0000.0001)     ;
(PID.TID 0000.0001) endTime =   /* Integration ending time ( s ). */
(PID.TID 0000.0001)                 4.800000000000000E+04
(PID.TID 0000.0001)     ;
(PID.TID 0000.0001) pChkPtFreq =   /* Permanent restart/checkpoint file interval ( s ). */
(PID.TID 0000.0001)                 1.700000000000000E+04
(PID.TID 0000.0001)     ;
(PID.TID 0000.0001) chkPtFreq =   /* Rolling restart/checkpoint file interval ( s ). */
(PID.TID 0000.0001)                 0.000000000000000E+00
(PID.TID 0000.0001)     ;
(PID.TID 0000.0001) pickup_write_mdsio =   /* Model IO flag. */
(PID.TID 0000.0001)                   T
(PID.TID 0000.0001)     ;
(PID.TID 0000.0001) pickup_read_mdsio =   /* Model IO flag. */
(PID.TID 0000.0001)                   T
(PID.TID 0000.0001)     ;
(PID.TID 0000.0001) pickup_write_immed =   /* Model IO flag. */
(PID.TID 0000.0001)                   F
(PID.TID 0000.0001)     ;
(PID.TID 0000.0001) dumpFreq =   /* Model state write out interval ( s ). */
(PID.TID 0000.0001)                 2.592000000000000E+06
(PID.TID 0000.0001)     ;
(PID.TID 0000.0001) snapshot_mdsio =   /* Model IO flag. */
(PID.TID 0000.0001)                   T
(PID.TID 0000.0001)     ;
(PID.TID 0000.0001) monitorFreq =   /* Monitor output interval ( s ). */
(PID.TID 0000.0001)                 1.000000000000000E+00
(PID.TID 0000.0001)     ;
(PID.TID 0000.0001) monitor_stdio =   /* Model IO flag. */
(PID.TID 0000.0001)                   T
(PID.TID 0000.0001)     ;
(PID.TID 0000.0001) externForcingPeriod =   /* forcing period (s) */
(PID.TID 0000.0001)                 0.000000000000000E+00
(PID.TID 0000.0001)     ;
(PID.TID 0000.0001) externForcingCycle =   /* period of the cyle (s). */
(PID.TID 0000.0001)                 0.000000000000000E+00
(PID.TID 0000.0001)     ;
(PID.TID 0000.0001) tauThetaClimRelax =   /* relaxation time scale (s) */
(PID.TID 0000.0001)                 0.000000000000000E+00
(PID.TID 0000.0001)     ;
(PID.TID 0000.0001) tauSaltClimRelax =   /* relaxation time scale (s) */
(PID.TID 0000.0001)                 0.000000000000000E+00
(PID.TID 0000.0001)     ;
(PID.TID 0000.0001) latBandClimRelax =   /* max. Lat. where relaxation */
(PID.TID 0000.0001)                 3.600000000000000E+08
(PID.TID 0000.0001)     ;
(PID.TID 0000.0001) //
(PID.TID 0000.0001) // Gridding paramters ( PARM04 in namelist )
(PID.TID 0000.0001) //
(PID.TID 0000.0001) usingCartesianGrid =   /* Cartesian coordinates flag ( True / False ) */
(PID.TID 0000.0001)                   T
(PID.TID 0000.0001)     ;
(PID.TID 0000.0001) usingSphericalPolarGrid =   /* Spherical coordinates flag ( True / False ) */
(PID.TID 0000.0001)                   F
(PID.TID 0000.0001)     ;
(PID.TID 0000.0001) usingCylindricalGrid =   /* Spherical coordinates flag ( True / False ) */
(PID.TID 0000.0001)                   F
(PID.TID 0000.0001)     ;
(PID.TID 0000.0001) groundAtK1 =   /* Lower Boundary (ground) at the surface(k=1) ( T / F ) */
(PID.TID 0000.0001)                   F
(PID.TID 0000.0001)     ;
(PID.TID 0000.0001) Ro_SeaLevel =   /* r(1) ( units of r ) */
(PID.TID 0000.0001)                 0.000000000000000E+00
(PID.TID 0000.0001)     ;
(PID.TID 0000.0001) rkFac =   /* minus Vertical index orientation  */
(PID.TID 0000.0001)                 1.000000000000000E+00
(PID.TID 0000.0001)     ;
(PID.TID 0000.0001) horiVertRatio =   /* Ratio on units : Horiz - Vertical */
(PID.TID 0000.0001)                 1.000000000000000E+00
(PID.TID 0000.0001)     ;
(PID.TID 0000.0001) drC =   /* C spacing ( units of r ) */
(PID.TID 0000.0001)                 2.500000000000000E+02,      /* K =  1 */
(PID.TID 0000.0001)     3 @  5.000000000000000E+02              /* K =  2:  4 */
(PID.TID 0000.0001)     ;
(PID.TID 0000.0001) drF =   /* W spacing ( units of r ) */
(PID.TID 0000.0001)     4 @  5.000000000000000E+02              /* K =  1:  4 */
(PID.TID 0000.0001)     ;
(PID.TID 0000.0001) delX =   /* U spacing ( m - cartesian, degrees - spherical ) */
(PID.TID 0000.0001)    60 @  1.000000000000000E+05              /* I =  1: 60 */
(PID.TID 0000.0001)     ;
(PID.TID 0000.0001) delY =   /* V spacing ( m - cartesian, degrees - spherical ) */
(PID.TID 0000.0001)    60 @  1.000000000000000E+05              /* J =  1: 60 */
(PID.TID 0000.0001)     ;
(PID.TID 0000.0001) phiMin =    /* South edge (ignored - cartesian, degrees - spherical ) */
(PID.TID 0000.0001)                 0.000000000000000E+00
(PID.TID 0000.0001)     ;
(PID.TID 0000.0001) thetaMin =    /* West edge ( ignored - cartesian, degrees - spherical ) */
(PID.TID 0000.0001)                 0.000000000000000E+00
(PID.TID 0000.0001)     ;
(PID.TID 0000.0001) rSphere =    /* Radius ( ignored - cartesian, m - spherical ) */
(PID.TID 0000.0001)                 6.370000000000000E+06
(PID.TID 0000.0001)     ;
(PID.TID 0000.0001) xcoord =   /* P-point X coord ( m - cartesian, degrees - spherical ) */
(PID.TID 0000.0001)                 5.000000000000000E+04,      /* I =  1 */
(PID.TID 0000.0001)                 1.500000000000000E+05,      /* I =  2 */
(PID.TID 0000.0001)                 2.500000000000000E+05,      /* I =  3 */
(PID.TID 0000.0001)                 3.500000000000000E+05,      /* I =  4 */
(PID.TID 0000.0001)                 4.500000000000000E+05,      /* I =  5 */
(PID.TID 0000.0001)                 5.500000000000000E+05,      /* I =  6 */
(PID.TID 0000.0001)                 6.500000000000000E+05,      /* I =  7 */
(PID.TID 0000.0001)                 7.500000000000000E+05,      /* I =  8 */
(PID.TID 0000.0001)                 8.500000000000000E+05,      /* I =  9 */
(PID.TID 0000.0001)                 9.500000000000000E+05,      /* I = 10 */
(PID.TID 0000.0001)                 1.050000000000000E+06,      /* I = 11 */
(PID.TID 0000.0001)                 1.150000000000000E+06,      /* I = 12 */
(PID.TID 0000.0001)                 1.250000000000000E+06,      /* I = 13 */
(PID.TID 0000.0001)                 1.350000000000000E+06,      /* I = 14 */
(PID.TID 0000.0001)                 1.450000000000000E+06,      /* I = 15 */
(PID.TID 0000.0001)                 1.550000000000000E+06,      /* I = 16 */
(PID.TID 0000.0001)                 1.650000000000000E+06,      /* I = 17 */
(PID.TID 0000.0001)                 1.750000000000000E+06,      /* I = 18 */
(PID.TID 0000.0001)                 1.850000000000000E+06,      /* I = 19 */
(PID.TID 0000.0001)                 1.950000000000000E+06,      /* I = 20 */
(PID.TID 0000.0001)                 2.050000000000000E+06,      /* I = 21 */
(PID.TID 0000.0001)                 2.150000000000000E+06,      /* I = 22 */
(PID.TID 0000.0001)                 2.250000000000000E+06,      /* I = 23 */
(PID.TID 0000.0001)                 2.350000000000000E+06,      /* I = 24 */
(PID.TID 0000.0001)                 2.450000000000000E+06,      /* I = 25 */
(PID.TID 0000.0001)                 2.550000000000000E+06,      /* I = 26 */
(PID.TID 0000.0001)                 2.650000000000000E+06,      /* I = 27 */
(PID.TID 0000.0001)                 2.750000000000000E+06,      /* I = 28 */
(PID.TID 0000.0001)                 2.850000000000000E+06,      /* I = 29 */
(PID.TID 0000.0001)                 2.950000000000000E+06,      /* I = 30 */
(PID.TID 0000.0001)                 3.050000000000000E+06,      /* I = 31 */
(PID.TID 0000.0001)                 3.150000000000000E+06,      /* I = 32 */
(PID.TID 0000.0001)                 3.250000000000000E+06,      /* I = 33 */
(PID.TID 0000.0001)                 3.350000000000000E+06,      /* I = 34 */
(PID.TID 0000.0001)                 3.450000000000000E+06,      /* I = 35 */
(PID.TID 0000.0001)                 3.550000000000000E+06,      /* I = 36 */
(PID.TID 0000.0001)                 3.650000000000000E+06,      /* I = 37 */
(PID.TID 0000.0001)                 3.750000000000000E+06,      /* I = 38 */
(PID.TID 0000.0001)                 3.850000000000000E+06,      /* I = 39 */
(PID.TID 0000.0001)                 3.950000000000000E+06,      /* I = 40 */
(PID.TID 0000.0001)                 4.050000000000000E+06,      /* I = 41 */
(PID.TID 0000.0001)                 4.150000000000000E+06,      /* I = 42 */
(PID.TID 0000.0001)                 4.250000000000000E+06,      /* I = 43 */
(PID.TID 0000.0001)                 4.350000000000000E+06,      /* I = 44 */
(PID.TID 0000.0001)                 4.450000000000000E+06,      /* I = 45 */
(PID.TID 0000.0001)                 4.550000000000000E+06,      /* I = 46 */
(PID.TID 0000.0001)                 4.650000000000000E+06,      /* I = 47 */
(PID.TID 0000.0001)                 4.750000000000000E+06,      /* I = 48 */
(PID.TID 0000.0001)                 4.850000000000000E+06,      /* I = 49 */
(PID.TID 0000.0001)                 4.950000000000000E+06,      /* I = 50 */
(PID.TID 0000.0001)                 5.050000000000000E+06,      /* I = 51 */
(PID.TID 0000.0001)                 5.150000000000000E+06,      /* I = 52 */
(PID.TID 0000.0001)                 5.250000000000000E+06,      /* I = 53 */
(PID.TID 0000.0001)                 5.350000000000000E+06,      /* I = 54 */
(PID.TID 0000.0001)                 5.450000000000000E+06,      /* I = 55 */
(PID.TID 0000.0001)                 5.550000000000000E+06,      /* I = 56 */
(PID.TID 0000.0001)                 5.650000000000000E+06,      /* I = 57 */
(PID.TID 0000.0001)                 5.750000000000000E+06,      /* I = 58 */
(PID.TID 0000.0001)                 5.850000000000000E+06,      /* I = 59 */
(PID.TID 0000.0001)                 5.950000000000000E+06       /* I = 60 */
(PID.TID 0000.0001)     ;
(PID.TID 0000.0001) ycoord =   /* P-point Y coord ( m - cartesian, degrees - spherical ) */
(PID.TID 0000.0001)                 5.000000000000000E+04,      /* J =  1 */
(PID.TID 0000.0001)                 1.500000000000000E+05,      /* J =  2 */
(PID.TID 0000.0001)                 2.500000000000000E+05,      /* J =  3 */
(PID.TID 0000.0001)                 3.500000000000000E+05,      /* J =  4 */
(PID.TID 0000.0001)                 4.500000000000000E+05,      /* J =  5 */
(PID.TID 0000.0001)                 5.500000000000000E+05,      /* J =  6 */
(PID.TID 0000.0001)                 6.500000000000000E+05,      /* J =  7 */
(PID.TID 0000.0001)                 7.500000000000000E+05,      /* J =  8 */
(PID.TID 0000.0001)                 8.500000000000000E+05,      /* J =  9 */
(PID.TID 0000.0001)                 9.500000000000000E+05,      /* J = 10 */
(PID.TID 0000.0001)                 1.050000000000000E+06,      /* J = 11 */
(PID.TID 0000.0001)                 1.150000000000000E+06,      /* J = 12 */
(PID.TID 0000.0001)                 1.250000000000000E+06,      /* J = 13 */
(PID.TID 0000.0001)                 1.350000000000000E+06,      /* J = 14 */
(PID.TID 0000.0001)                 1.450000000000000E+06,      /* J = 15 */
(PID.TID 0000.0001)                 1.550000000000000E+06,      /* J = 16 */
(PID.TID 0000.0001)                 1.650000000000000E+06,      /* J = 17 */
(PID.TID 0000.0001)                 1.750000000000000E+06,      /* J = 18 */
(PID.TID 0000.0001)                 1.850000000000000E+06,      /* J = 19 */
(PID.TID 0000.0001)                 1.950000000000000E+06,      /* J = 20 */
(PID.TID 0000.0001)                 2.050000000000000E+06,      /* J = 21 */
(PID.TID 0000.0001)                 2.150000000000000E+06,      /* J = 22 */
(PID.TID 0000.0001)                 2.250000000000000E+06,      /* J = 23 */
(PID.TID 0000.0001)                 2.350000000000000E+06,      /* J = 24 */
(PID.TID 0000.0001)                 2.450000000000000E+06,      /* J = 25 */
(PID.TID 0000.0001)                 2.550000000000000E+06,      /* J = 26 */
(PID.TID 0000.0001)                 2.650000000000000E+06,      /* J = 27 */
(PID.TID 0000.0001)                 2.750000000000000E+06,      /* J = 28 */
(PID.TID 0000.0001)                 2.850000000000000E+06,      /* J = 29 */
(PID.TID 0000.0001)                 2.950000000000000E+06,      /* J = 30 */
(PID.TID 0000.0001)                 3.050000000000000E+06,      /* J = 31 */
(PID.TID 0000.0001)                 3.150000000000000E+06,      /* J = 32 */
(PID.TID 0000.0001)                 3.250000000000000E+06,      /* J = 33 */
(PID.TID 0000.0001)                 3.350000000000000E+06,      /* J = 34 */
(PID.TID 0000.0001)                 3.450000000000000E+06,      /* J = 35 */
(PID.TID 0000.0001)                 3.550000000000000E+06,      /* J = 36 */
(PID.TID 0000.0001)                 3.650000000000000E+06,      /* J = 37 */
(PID.TID 0000.0001)                 3.750000000000000E+06,      /* J = 38 */
(PID.TID 0000.0001)                 3.850000000000000E+06,      /* J = 39 */
(PID.TID 0000.0001)                 3.950000000000000E+06,      /* J = 40 */
(PID.TID 0000.0001)                 4.050000000000000E+06,      /* J = 41 */
(PID.TID 0000.0001)                 4.150000000000000E+06,      /* J = 42 */
(PID.TID 0000.0001)                 4.250000000000000E+06,      /* J = 43 */
(PID.TID 0000.0001)                 4.350000000000000E+06,      /* J = 44 */
(PID.TID 0000.0001)                 4.450000000000000E+06,      /* J = 45 */
(PID.TID 0000.0001)                 4.550000000000000E+06,      /* J = 46 */
(PID.TID 0000.0001)                 4.650000000000000E+06,      /* J = 47 */
(PID.TID 0000.0001)                 4.750000000000000E+06,      /* J = 48 */
(PID.TID 0000.0001)                 4.850000000000000E+06,      /* J = 49 */
(PID.TID 0000.0001)                 4.950000000000000E+06,      /* J = 50 */
(PID.TID 0000.0001)                 5.050000000000000E+06,      /* J = 51 */
(PID.TID 0000.0001)                 5.150000000000000E+06,      /* J = 52 */
(PID.TID 0000.0001)                 5.250000000000000E+06,      /* J = 53 */
(PID.TID 0000.0001)                 5.350000000000000E+06,      /* J = 54 */
(PID.TID 0000.0001)                 5.450000000000000E+06,      /* J = 55 */
(PID.TID 0000.0001)                 5.550000000000000E+06,      /* J = 56 */
(PID.TID 0000.0001)                 5.650000000000000E+06,      /* J = 57 */
(PID.TID 0000.0001)                 5.750000000000000E+06,      /* J = 58 */
(PID.TID 0000.0001)                 5.850000000000000E+06,      /* J = 59 */
(PID.TID 0000.0001)                 5.950000000000000E+06       /* J = 60 */
(PID.TID 0000.0001)     ;
(PID.TID 0000.0001) rcoord =   /* P-point R coordinate (  units of r ) */
(PID.TID 0000.0001)                -2.500000000000000E+02,      /* K =  1 */
(PID.TID 0000.0001)                -7.500000000000000E+02,      /* K =  2 */
(PID.TID 0000.0001)                -1.250000000000000E+03,      /* K =  3 */
(PID.TID 0000.0001)                -1.750000000000000E+03       /* K =  4 */
(PID.TID 0000.0001)     ;
(PID.TID 0000.0001) rF =   /* W-Interf. R coordinate (  units of r ) */
(PID.TID 0000.0001)                 0.000000000000000E+00,      /* K =  1 */
(PID.TID 0000.0001)                -5.000000000000000E+02,      /* K =  2 */
(PID.TID 0000.0001)                -1.000000000000000E+03,      /* K =  3 */
(PID.TID 0000.0001)                -1.500000000000000E+03,      /* K =  4 */
(PID.TID 0000.0001)                -2.000000000000000E+03       /* K =  5 */
(PID.TID 0000.0001)     ;
(PID.TID 0000.0001) dxF =  /* dxF(:,1,:,1) ( m - cartesian, degrees - spherical ) */
(PID.TID 0000.0001)    60 @  1.000000000000000E+05              /* I =  1: 60 */
(PID.TID 0000.0001)     ;
(PID.TID 0000.0001) dxF =  /* dxF(1,:,1,:) ( m - cartesian, degrees - spherical ) */
(PID.TID 0000.0001)    60 @  1.000000000000000E+05              /* J =  1: 60 */
(PID.TID 0000.0001)     ;
(PID.TID 0000.0001) dyF =  /* dyF(:,1,:,1) ( m - cartesian, degrees - spherical ) */
(PID.TID 0000.0001)    60 @  1.000000000000000E+05              /* I =  1: 60 */
(PID.TID 0000.0001)     ;
(PID.TID 0000.0001) dyF =  /* dyF(1,:,1,:) ( m - cartesian, degrees - spherical ) */
(PID.TID 0000.0001)    60 @  1.000000000000000E+05              /* J =  1: 60 */
(PID.TID 0000.0001)     ;
(PID.TID 0000.0001) dxG =  /* dxG(:,1,:,1) ( m - cartesian, degrees - spherical ) */
(PID.TID 0000.0001)    60 @  1.000000000000000E+05              /* I =  1: 60 */
(PID.TID 0000.0001)     ;
(PID.TID 0000.0001) dxG =  /* dxG(1,:,1,:) ( m - cartesian, degrees - spherical ) */
(PID.TID 0000.0001)    60 @  1.000000000000000E+05              /* J =  1: 60 */
(PID.TID 0000.0001)     ;
(PID.TID 0000.0001) dyG =  /* dyG(:,1,:,1) ( m - cartesian, degrees - spherical ) */
(PID.TID 0000.0001)    60 @  1.000000000000000E+05              /* I =  1: 60 */
(PID.TID 0000.0001)     ;
(PID.TID 0000.0001) dyG =  /* dyG(1,:,1,:) ( m - cartesian, degrees - spherical ) */
(PID.TID 0000.0001)    60 @  1.000000000000000E+05              /* J =  1: 60 */
(PID.TID 0000.0001)     ;
(PID.TID 0000.0001) dxC =  /* dxC(:,1,:,1) ( m - cartesian, degrees - spherical ) */
(PID.TID 0000.0001)    60 @  1.000000000000000E+05              /* I =  1: 60 */
(PID.TID 0000.0001)     ;
(PID.TID 0000.0001) dxC =  /* dxC(1,:,1,:) ( m - cartesian, degrees - spherical ) */
(PID.TID 0000.0001)    60 @  1.000000000000000E+05              /* J =  1: 60 */
(PID.TID 0000.0001)     ;
(PID.TID 0000.0001) dyC =  /* dyC(:,1,:,1) ( m - cartesian, degrees - spherical ) */
(PID.TID 0000.0001)    60 @  1.000000000000000E+05              /* I =  1: 60 */
(PID.TID 0000.0001)     ;
(PID.TID 0000.0001) dyC =  /* dyC(1,:,1,:) ( m - cartesian, degrees - spherical ) */
(PID.TID 0000.0001)    60 @  1.000000000000000E+05              /* J =  1: 60 */
(PID.TID 0000.0001)     ;
(PID.TID 0000.0001) dxV =  /* dxV(:,1,:,1) ( m - cartesian, degrees - spherical ) */
(PID.TID 0000.0001)    60 @  1.000000000000000E+05              /* I =  1: 60 */
(PID.TID 0000.0001)     ;
(PID.TID 0000.0001) dxV =  /* dxV(1,:,1,:) ( m - cartesian, degrees - spherical ) */
(PID.TID 0000.0001)    60 @  1.000000000000000E+05              /* J =  1: 60 */
(PID.TID 0000.0001)     ;
(PID.TID 0000.0001) dyU =  /* dyU(:,1,:,1) ( m - cartesian, degrees - spherical ) */
(PID.TID 0000.0001)    60 @  1.000000000000000E+05              /* I =  1: 60 */
(PID.TID 0000.0001)     ;
(PID.TID 0000.0001) dyU =  /* dyU(1,:,1,:) ( m - cartesian, degrees - spherical ) */
(PID.TID 0000.0001)    60 @  1.000000000000000E+05              /* J =  1: 60 */
(PID.TID 0000.0001)     ;
(PID.TID 0000.0001) rA =  /* rA(:,1,:,1) ( m - cartesian, degrees - spherical ) */
(PID.TID 0000.0001)    60 @  1.000000000000000E+10              /* I =  1: 60 */
(PID.TID 0000.0001)     ;
(PID.TID 0000.0001) rA =  /* rA(1,:,1,:) ( m - cartesian, degrees - spherical ) */
(PID.TID 0000.0001)    60 @  1.000000000000000E+10              /* J =  1: 60 */
(PID.TID 0000.0001)     ;
(PID.TID 0000.0001) rAw =  /* rAw(:,1,:,1) ( m - cartesian, degrees - spherical ) */
(PID.TID 0000.0001)    60 @  1.000000000000000E+10              /* I =  1: 60 */
(PID.TID 0000.0001)     ;
(PID.TID 0000.0001) rAw =  /* rAw(1,:,1,:) ( m - cartesian, degrees - spherical ) */
(PID.TID 0000.0001)    60 @  1.000000000000000E+10              /* J =  1: 60 */
(PID.TID 0000.0001)     ;
(PID.TID 0000.0001) rAs =  /* rAs(:,1,:,1) ( m - cartesian, degrees - spherical ) */
(PID.TID 0000.0001)    60 @  1.000000000000000E+10              /* I =  1: 60 */
(PID.TID 0000.0001)     ;
(PID.TID 0000.0001) rAs =  /* rAs(1,:,1,:) ( m - cartesian, degrees - spherical ) */
(PID.TID 0000.0001)    60 @  1.000000000000000E+10              /* J =  1: 60 */
(PID.TID 0000.0001)     ;
(PID.TID 0000.0001) 
(PID.TID 0000.0001) // =======================================================
(PID.TID 0000.0001) // Field Initial Temperature at iteration          1
(PID.TID 0000.0001) // CMIN =          2.000000000000000E+01
(PID.TID 0000.0001) // CMAX =          2.000000000000000E+01
(PID.TID 0000.0001) // CINT =          0.000000000000000E+00
(PID.TID 0000.0001) // SYMBOLS (CMIN->CMAX): -abcdefghijklmnopqrstuvwxyz+
(PID.TID 0000.0001) //                  0.0: .
(PID.TID 0000.0001) // RANGE I (Lo:Hi:Step):(   1:  60:   1)
(PID.TID 0000.0001) // RANGE J (Lo:Hi:Step):(  60:   1:  -1)
(PID.TID 0000.0001) // RANGE K (Lo:Hi:Step):(   1:   1:   1)
(PID.TID 0000.0001) // =======================================================
(PID.TID 0000.0001) // =======================================================
(PID.TID 0000.0001) // END OF FIELD                                          =
(PID.TID 0000.0001) // =======================================================
(PID.TID 0000.0001) 
(PID.TID 0000.0001) // =======================================================
(PID.TID 0000.0001) // Field Initial Salinity at iteration          1
(PID.TID 0000.0001) // CMIN =          1.000000000000000E+01
(PID.TID 0000.0001) // CMAX =          1.000000000000000E+01
(PID.TID 0000.0001) // CINT =          0.000000000000000E+00
(PID.TID 0000.0001) // SYMBOLS (CMIN->CMAX): -abcdefghijklmnopqrstuvwxyz+
(PID.TID 0000.0001) //                  0.0: .
(PID.TID 0000.0001) // RANGE I (Lo:Hi:Step):(   1:  60:   1)
(PID.TID 0000.0001) // RANGE J (Lo:Hi:Step):(  60:   1:  -1)
(PID.TID 0000.0001) // RANGE K (Lo:Hi:Step):(   1:   1:   1)
(PID.TID 0000.0001) // =======================================================
(PID.TID 0000.0001) // =======================================================
(PID.TID 0000.0001) // END OF FIELD                                          =
(PID.TID 0000.0001) // =======================================================
(PID.TID 0000.0001) 
(PID.TID 0000.0001) Start initial hydrostatic pressure computation
(PID.TID 0000.0001) Pressure is predetermined for buoyancyRelation OCEANIC
(PID.TID 0000.0001) 
(PID.TID 0000.0001)  MDSREADFIELD: opening global file: pLoad.bin
(PID.TID 0000.0001) // =======================================================
(PID.TID 0000.0001) // Model current state
(PID.TID 0000.0001) // =======================================================
(PID.TID 0000.0001) 
(PID.TID 0000.0001) // =======================================================
(PID.TID 0000.0001) // Begin MONITOR dynamic field statistics
(PID.TID 0000.0001) // =======================================================
(PID.TID 0000.0001) %MON time_tsnumber                =                     0
(PID.TID 0000.0001) %MON time_secondsf                =   0.0000000000000E+00
(PID.TID 0000.0001) %MON dynstat_eta_max              =   0.0000000000000E+00
(PID.TID 0000.0001) %MON dynstat_eta_min              =   0.0000000000000E+00
(PID.TID 0000.0001) %MON dynstat_eta_mean             =   0.0000000000000E+00
(PID.TID 0000.0001) %MON dynstat_eta_sd               =   0.0000000000000E+00
(PID.TID 0000.0001) %MON dynstat_eta_del2             =   0.0000000000000E+00
(PID.TID 0000.0001) %MON dynstat_uvel_max             =   0.0000000000000E+00
(PID.TID 0000.0001) %MON dynstat_uvel_min             =   0.0000000000000E+00
(PID.TID 0000.0001) %MON dynstat_uvel_mean            =   0.0000000000000E+00
(PID.TID 0000.0001) %MON dynstat_uvel_sd              =   0.0000000000000E+00
(PID.TID 0000.0001) %MON dynstat_uvel_del2            =   0.0000000000000E+00
(PID.TID 0000.0001) %MON dynstat_vvel_max             =   0.0000000000000E+00
(PID.TID 0000.0001) %MON dynstat_vvel_min             =   0.0000000000000E+00
(PID.TID 0000.0001) %MON dynstat_vvel_mean            =   0.0000000000000E+00
(PID.TID 0000.0001) %MON dynstat_vvel_sd              =   0.0000000000000E+00
(PID.TID 0000.0001) %MON dynstat_vvel_del2            =   0.0000000000000E+00
(PID.TID 0000.0001) %MON dynstat_wvel_max             =   0.0000000000000E+00
(PID.TID 0000.0001) %MON dynstat_wvel_min             =   0.0000000000000E+00
(PID.TID 0000.0001) %MON dynstat_wvel_mean            =   0.0000000000000E+00
(PID.TID 0000.0001) %MON dynstat_wvel_sd              =   0.0000000000000E+00
(PID.TID 0000.0001) %MON dynstat_wvel_del2            =   0.0000000000000E+00
(PID.TID 0000.0001) %MON dynstat_theta_max            =   2.0000000000000E+01
(PID.TID 0000.0001) %MON dynstat_theta_min            =   6.0000000000000E+00
(PID.TID 0000.0001) %MON dynstat_theta_mean           =   1.1000000000000E+01
(PID.TID 0000.0001) %MON dynstat_theta_sd             =   5.3851648071345E+00
(PID.TID 0000.0001) %MON dynstat_theta_del2           =   0.0000000000000E+00
(PID.TID 0000.0001) %MON dynstat_salt_max             =   1.0000000000000E+01
(PID.TID 0000.0001) %MON dynstat_salt_min             =   1.0000000000000E+01
(PID.TID 0000.0001) %MON dynstat_salt_mean            =   1.0000000000000E+01
(PID.TID 0000.0001) %MON dynstat_salt_sd              =   0.0000000000000E+00
(PID.TID 0000.0001) %MON dynstat_salt_del2            =   0.0000000000000E+00
(PID.TID 0000.0001) %MON advcfl_uvel_max              =   0.0000000000000E+00
(PID.TID 0000.0001) %MON advcfl_vvel_max              =   0.0000000000000E+00
(PID.TID 0000.0001) %MON advcfl_wvel_max              =   0.0000000000000E+00
(PID.TID 0000.0001) %MON advcfl_W_hf_max              =   0.0000000000000E+00
(PID.TID 0000.0001) %MON pe_b_mean                    =   0.0000000000000E+00
(PID.TID 0000.0001) %MON ke_max                       =   0.0000000000000E+00
(PID.TID 0000.0001) %MON ke_mean                      =   0.0000000000000E+00
(PID.TID 0000.0001) %MON ke_vol                       =   5.6340000000000E+16
(PID.TID 0000.0001) %MON vort_r_min                   =   0.0000000000000E+00
(PID.TID 0000.0001) %MON vort_r_max                   =   0.0000000000000E+00
(PID.TID 0000.0001) %MON vort_a_mean                  =   1.0000000000000E-04
(PID.TID 0000.0001) %MON vort_a_sd                    =   0.0000000000000E+00
(PID.TID 0000.0001) %MON vort_p_mean                  =   1.0398839738941E-04
(PID.TID 0000.0001) %MON vort_p_sd                    =   3.0798696260398E-05
(PID.TID 0000.0001) %MON surfExpan_theta_mean         =   0.0000000000000E+00
(PID.TID 0000.0001) %MON surfExpan_salt_mean          =   0.0000000000000E+00
(PID.TID 0000.0001) // =======================================================
(PID.TID 0000.0001) // End MONITOR dynamic field statistics
(PID.TID 0000.0001) // =======================================================
 cg2d: Sum(rhs),rhsMax =   5.77315972805081E-14  4.24921128799584E-01
(PID.TID 0000.0001)                    cg2d_init_res =    1.43440091582323E+01
(PID.TID 0000.0001)                       cg2d_iters =    35
(PID.TID 0000.0001)                         cg2d_res =    8.75044355663795E-14
(PID.TID 0000.0001) // =======================================================
(PID.TID 0000.0001) // Begin MONITOR dynamic field statistics
(PID.TID 0000.0001) // =======================================================
(PID.TID 0000.0001) %MON time_tsnumber                =                     1
(PID.TID 0000.0001) %MON time_secondsf                =   1.2000000000000E+03
(PID.TID 0000.0001) %MON dynstat_eta_max              =   6.3479378056005E-02
(PID.TID 0000.0001) %MON dynstat_eta_min              =  -6.3479378056005E-02
(PID.TID 0000.0001) %MON dynstat_eta_mean             =  -1.4776704495030E-18
(PID.TID 0000.0001) %MON dynstat_eta_sd               =   2.6630509477227E-02
(PID.TID 0000.0001) %MON dynstat_eta_del2             =   4.6249552012277E-04
(PID.TID 0000.0001) %MON dynstat_uvel_max             =   7.6757222457609E-03
(PID.TID 0000.0001) %MON dynstat_uvel_min             =  -7.6757222457609E-03
(PID.TID 0000.0001) %MON dynstat_uvel_mean            =   5.3112536258158E-20
(PID.TID 0000.0001) %MON dynstat_uvel_sd              =   3.4801396250131E-03
(PID.TID 0000.0001) %MON dynstat_uvel_del2            =   4.7921737446697E-05
(PID.TID 0000.0001) %MON dynstat_vvel_max             =   7.6757222457609E-03
(PID.TID 0000.0001) %MON dynstat_vvel_min             =  -7.6757222457609E-03
(PID.TID 0000.0001) %MON dynstat_vvel_mean            =  -7.6127968636693E-19
(PID.TID 0000.0001) %MON dynstat_vvel_sd              =   3.4801396250131E-03
(PID.TID 0000.0001) %MON dynstat_vvel_del2            =   4.7921737446697E-05
(PID.TID 0000.0001) %MON dynstat_wvel_max             =   5.2899481713338E-05
(PID.TID 0000.0001) %MON dynstat_wvel_min             =  -5.2899481713338E-05
(PID.TID 0000.0001) %MON dynstat_wvel_mean            =  -7.1501996661183E-22
(PID.TID 0000.0001) %MON dynstat_wvel_sd              =   1.3909629302427E-05
(PID.TID 0000.0001) %MON dynstat_wvel_del2            =   2.4088308339728E-07
(PID.TID 0000.0001) %MON dynstat_theta_max            =   1.9999520000000E+01
(PID.TID 0000.0001) %MON dynstat_theta_min            =   6.0000960000000E+00
(PID.TID 0000.0001) %MON dynstat_theta_mean           =   1.1000000000000E+01
(PID.TID 0000.0001) %MON dynstat_theta_sd             =   5.3849241495835E+00
(PID.TID 0000.0001) %MON dynstat_theta_del2           =   0.0000000000000E+00
(PID.TID 0000.0001) %MON dynstat_salt_max             =   1.0000000000000E+01
(PID.TID 0000.0001) %MON dynstat_salt_min             =   1.0000000000000E+01
(PID.TID 0000.0001) %MON dynstat_salt_mean            =   1.0000000000000E+01
(PID.TID 0000.0001) %MON dynstat_salt_sd              =   0.0000000000000E+00
(PID.TID 0000.0001) %MON dynstat_salt_del2            =   0.0000000000000E+00
(PID.TID 0000.0001) %MON advcfl_uvel_max              =   9.2108666949131E-05
(PID.TID 0000.0001) %MON advcfl_vvel_max              =   9.2108666949131E-05
(PID.TID 0000.0001) %MON advcfl_wvel_max              =   2.5391751222402E-04
(PID.TID 0000.0001) %MON advcfl_W_hf_max              =   1.9043813416802E-04
(PID.TID 0000.0001) %MON pe_b_mean                    =  -2.5454689856414E-05
(PID.TID 0000.0001) %MON ke_max                       =   3.1921183426987E-05
(PID.TID 0000.0001) %MON ke_mean                      =   1.1857708005268E-05
(PID.TID 0000.0001) %MON ke_vol                       =   5.6340000000000E+16
(PID.TID 0000.0001) %MON vort_r_min                   =  -3.0468644005544E-08
(PID.TID 0000.0001) %MON vort_r_max                   =   3.0468644005544E-08
(PID.TID 0000.0001) %MON vort_a_mean                  =   1.0000000000000E-04
(PID.TID 0000.0001) %MON vort_a_sd                    =   4.1140218495264E-09
(PID.TID 0000.0001) %MON vort_p_mean                  =   1.0398839738941E-04
(PID.TID 0000.0001) %MON vort_p_sd                    =   3.0798696841317E-05
(PID.TID 0000.0001) %MON surfExpan_theta_mean         =  -3.0085322786656E-20
(PID.TID 0000.0001) %MON surfExpan_salt_mean          =   9.2900831901651E-21
(PID.TID 0000.0001) // =======================================================
(PID.TID 0000.0001) // End MONITOR dynamic field statistics
(PID.TID 0000.0001) // =======================================================
 cg2d: Sum(rhs),rhsMax =  -6.12843109593086E-14  8.65744524638392E-01
(PID.TID 0000.0001)                    cg2d_init_res =    1.13411031216681E+01
(PID.TID 0000.0001)                       cg2d_iters =    36
(PID.TID 0000.0001)                         cg2d_res =    3.85432175759239E-14
(PID.TID 0000.0001) // =======================================================
(PID.TID 0000.0001) // Begin MONITOR dynamic field statistics
(PID.TID 0000.0001) // =======================================================
(PID.TID 0000.0001) %MON time_tsnumber                =                     2
(PID.TID 0000.0001) %MON time_secondsf                =   2.4000000000000E+03
(PID.TID 0000.0001) %MON dynstat_eta_max              =   1.5119309361459E-01
(PID.TID 0000.0001) %MON dynstat_eta_min              =  -1.5119151821565E-01
(PID.TID 0000.0001) %MON dynstat_eta_mean             =  -3.1200079872204E-19
(PID.TID 0000.0001) %MON dynstat_eta_sd               =   7.2547081403664E-02
(PID.TID 0000.0001) %MON dynstat_eta_del2             =   8.5931488381330E-04
(PID.TID 0000.0001) %MON dynstat_uvel_max             =   1.3395140564885E-02
(PID.TID 0000.0001) %MON dynstat_uvel_min             =  -1.3395140564885E-02
(PID.TID 0000.0001) %MON dynstat_uvel_mean            =   4.6030864757070E-19
(PID.TID 0000.0001) %MON dynstat_uvel_sd              =   6.1216015273029E-03
(PID.TID 0000.0001) %MON dynstat_uvel_del2            =   8.5496689878935E-05
(PID.TID 0000.0001) %MON dynstat_vvel_max             =   1.3395113542603E-02
(PID.TID 0000.0001) %MON dynstat_vvel_min             =  -1.3395113542603E-02
(PID.TID 0000.0001) %MON dynstat_vvel_mean            =   7.0816715010877E-20
(PID.TID 0000.0001) %MON dynstat_vvel_sd              =   6.1215983933900E-03
(PID.TID 0000.0001) %MON dynstat_vvel_del2            =   8.5496492609078E-05
(PID.TID 0000.0001) %MON dynstat_wvel_max             =   8.0653436283743E-05
(PID.TID 0000.0001) %MON dynstat_wvel_min             =  -8.0652123451292E-05
(PID.TID 0000.0001) %MON dynstat_wvel_mean            =  -1.8184570362024E-21
(PID.TID 0000.0001) %MON dynstat_wvel_sd              =   2.4017893785266E-05
(PID.TID 0000.0001) %MON dynstat_wvel_del2            =   2.6572944101618E-07
(PID.TID 0000.0001) %MON dynstat_theta_max            =   1.9999801753076E+01
(PID.TID 0000.0001) %MON dynstat_theta_min            =   6.0001412115624E+00
(PID.TID 0000.0001) %MON dynstat_theta_mean           =   1.1000000000000E+01
(PID.TID 0000.0001) %MON dynstat_theta_sd             =   5.3846835335153E+00
(PID.TID 0000.0001) %MON dynstat_theta_del2           =   3.3297901466140E-06
(PID.TID 0000.0001) %MON dynstat_salt_max             =   1.0000000000000E+01
(PID.TID 0000.0001) %MON dynstat_salt_min             =   1.0000000000000E+01
(PID.TID 0000.0001) %MON dynstat_salt_mean            =   1.0000000000000E+01
(PID.TID 0000.0001) %MON dynstat_salt_sd              =   0.0000000000000E+00
(PID.TID 0000.0001) %MON dynstat_salt_del2            =   0.0000000000000E+00
(PID.TID 0000.0001) %MON advcfl_uvel_max              =   1.6074168677862E-04
(PID.TID 0000.0001) %MON advcfl_vvel_max              =   1.6074136251123E-04
(PID.TID 0000.0001) %MON advcfl_wvel_max              =   3.8713649416196E-04
(PID.TID 0000.0001) %MON advcfl_W_hf_max              =   2.9035028131702E-04
(PID.TID 0000.0001) %MON pe_b_mean                    =  -6.1716083455938E-05
(PID.TID 0000.0001) %MON ke_max                       =   1.0232837167515E-04
(PID.TID 0000.0001) %MON ke_mean                      =   3.6689120906466E-05
(PID.TID 0000.0001) %MON ke_vol                       =   5.6340000000000E+16
(PID.TID 0000.0001) %MON vort_r_min                   =  -5.3553840733701E-08
(PID.TID 0000.0001) %MON vort_r_max                   =   5.3553955433028E-08
(PID.TID 0000.0001) %MON vort_a_mean                  =   1.0000000000000E-04
(PID.TID 0000.0001) %MON vort_a_sd                    =   6.8687084765359E-09
(PID.TID 0000.0001) %MON vort_p_mean                  =   1.0398839738941E-04
(PID.TID 0000.0001) %MON vort_p_sd                    =   3.0798697821171E-05
(PID.TID 0000.0001) %MON surfExpan_theta_mean         =  -1.2195951929964E-08
(PID.TID 0000.0001) %MON surfExpan_salt_mean          =  -3.5441171458566E-20
(PID.TID 0000.0001) // =======================================================
(PID.TID 0000.0001) // End MONITOR dynamic field statistics
(PID.TID 0000.0001) // =======================================================
 cg2d: Sum(rhs),rhsMax =   4.44089209850063E-14  1.24139291430714E+00
(PID.TID 0000.0001)                    cg2d_init_res =    9.57941962986848E+00
(PID.TID 0000.0001)                       cg2d_iters =    35
(PID.TID 0000.0001)                         cg2d_res =    5.98906635975963E-14
(PID.TID 0000.0001) // =======================================================
(PID.TID 0000.0001) // Begin MONITOR dynamic field statistics
(PID.TID 0000.0001) // =======================================================
(PID.TID 0000.0001) %MON time_tsnumber                =                     3
(PID.TID 0000.0001) %MON time_secondsf                =   3.6000000000000E+03
(PID.TID 0000.0001) %MON dynstat_eta_max              =   2.7302464671160E-01
(PID.TID 0000.0001) %MON dynstat_eta_min              =  -2.7301824102663E-01
(PID.TID 0000.0001) %MON dynstat_eta_mean             =   4.2986776712815E-18
(PID.TID 0000.0001) %MON dynstat_eta_sd               =   1.2868286912338E-01
(PID.TID 0000.0001) %MON dynstat_eta_del2             =   1.3699498745645E-03
(PID.TID 0000.0001) %MON dynstat_uvel_max             =   1.6490553040383E-02
(PID.TID 0000.0001) %MON dynstat_uvel_min             =  -1.6490553040383E-02
(PID.TID 0000.0001) %MON dynstat_uvel_mean            =   1.4163343002175E-18
(PID.TID 0000.0001) %MON dynstat_uvel_sd              =   7.6702060718369E-03
(PID.TID 0000.0001) %MON dynstat_uvel_del2            =   1.0593898464993E-04
(PID.TID 0000.0001) %MON dynstat_vvel_max             =   1.6490517858712E-02
(PID.TID 0000.0001) %MON dynstat_vvel_min             =  -1.6490517858712E-02
(PID.TID 0000.0001) %MON dynstat_vvel_mean            =  -1.6287844452502E-18
(PID.TID 0000.0001) %MON dynstat_vvel_sd              =   7.6701952652520E-03
(PID.TID 0000.0001) %MON dynstat_vvel_del2            =   1.0593816799476E-04
(PID.TID 0000.0001) %MON dynstat_wvel_max             =   1.0152629424751E-04
(PID.TID 0000.0001) %MON dynstat_wvel_min             =  -1.0152226900915E-04
(PID.TID 0000.0001) %MON dynstat_wvel_mean            =   3.2886988952596E-22
(PID.TID 0000.0001) %MON dynstat_wvel_sd              =   2.9394541632096E-05
(PID.TID 0000.0001) %MON dynstat_wvel_del2            =   3.1418461202511E-07
(PID.TID 0000.0001) %MON dynstat_theta_max            =   2.0000129382534E+01
(PID.TID 0000.0001) %MON dynstat_theta_min            =   6.0001833594745E+00
(PID.TID 0000.0001) %MON dynstat_theta_mean           =   1.1000000011708E+01
(PID.TID 0000.0001) %MON dynstat_theta_sd             =   5.3844429626401E+00
(PID.TID 0000.0001) %MON dynstat_theta_del2           =   5.1254166889801E-06
(PID.TID 0000.0001) %MON dynstat_salt_max             =   1.0000000000000E+01
(PID.TID 0000.0001) %MON dynstat_salt_min             =   1.0000000000000E+01
(PID.TID 0000.0001) %MON dynstat_salt_mean            =   1.0000000000000E+01
(PID.TID 0000.0001) %MON dynstat_salt_sd              =   0.0000000000000E+00
(PID.TID 0000.0001) %MON dynstat_salt_del2            =   0.0000000000000E+00
(PID.TID 0000.0001) %MON advcfl_uvel_max              =   1.9788663648459E-04
(PID.TID 0000.0001) %MON advcfl_vvel_max              =   1.9788621430454E-04
(PID.TID 0000.0001) %MON advcfl_wvel_max              =   4.8732621238805E-04
(PID.TID 0000.0001) %MON advcfl_W_hf_max              =   3.6547455832920E-04
(PID.TID 0000.0001) %MON pe_b_mean                    =  -9.2322390014721E-05
(PID.TID 0000.0001) %MON ke_max                       =   1.6788197624708E-04
(PID.TID 0000.0001) %MON ke_mean                      =   5.7599785637107E-05
(PID.TID 0000.0001) %MON ke_vol                       =   5.6340000000000E+16
(PID.TID 0000.0001) %MON vort_r_min                   =  -6.3218590291231E-08
(PID.TID 0000.0001) %MON vort_r_max                   =   6.3218803771457E-08
(PID.TID 0000.0001) %MON vort_a_mean                  =   1.0000000000000E-04
(PID.TID 0000.0001) %MON vort_a_sd                    =   8.6655422852841E-09
(PID.TID 0000.0001) %MON vort_p_mean                  =   1.0398839738941E-04
(PID.TID 0000.0001) %MON vort_p_sd                    =   3.0798698525767E-05
(PID.TID 0000.0001) %MON surfExpan_theta_mean         =  -3.5081292570831E-08
(PID.TID 0000.0001) %MON surfExpan_salt_mean          =   6.8766452083784E-21
(PID.TID 0000.0001) // =======================================================
(PID.TID 0000.0001) // End MONITOR dynamic field statistics
(PID.TID 0000.0001) // =======================================================
 cg2d: Sum(rhs),rhsMax =  -4.66293670342566E-14  1.56919853143730E+00
(PID.TID 0000.0001)                    cg2d_init_res =    7.72675850262154E+00
(PID.TID 0000.0001)                       cg2d_iters =    35
(PID.TID 0000.0001)                         cg2d_res =    4.62308356622280E-14
(PID.TID 0000.0001) // =======================================================
(PID.TID 0000.0001) // Begin MONITOR dynamic field statistics
(PID.TID 0000.0001) // =======================================================
(PID.TID 0000.0001) %MON time_tsnumber                =                     4
(PID.TID 0000.0001) %MON time_secondsf                =   4.8000000000000E+03
(PID.TID 0000.0001) %MON dynstat_eta_max              =   4.0135513336093E-01
(PID.TID 0000.0001) %MON dynstat_eta_min              =  -4.0134240861131E-01
(PID.TID 0000.0001) %MON dynstat_eta_mean             =   1.7056043663472E-17
(PID.TID 0000.0001) %MON dynstat_eta_sd               =   1.8602139126753E-01
(PID.TID 0000.0001) %MON dynstat_eta_del2             =   1.9426989128405E-03
(PID.TID 0000.0001) %MON dynstat_uvel_max             =   1.7833109684602E-02
(PID.TID 0000.0001) %MON dynstat_uvel_min             =  -1.7833109684602E-02
(PID.TID 0000.0001) %MON dynstat_uvel_mean            =   1.2747008701958E-18
(PID.TID 0000.0001) %MON dynstat_uvel_sd              =   8.1482333777971E-03
(PID.TID 0000.0001) %MON dynstat_uvel_del2            =   1.1036784976296E-04
(PID.TID 0000.0001) %MON dynstat_vvel_max             =   1.7833183305072E-02
(PID.TID 0000.0001) %MON dynstat_vvel_min             =  -1.7833183305072E-02
(PID.TID 0000.0001) %MON dynstat_vvel_mean            =  -1.2038841551849E-18
(PID.TID 0000.0001) %MON dynstat_vvel_sd              =   8.1482140148334E-03
(PID.TID 0000.0001) %MON dynstat_vvel_del2            =   1.1036583889251E-04
(PID.TID 0000.0001) %MON dynstat_wvel_max             =   1.0704254735471E-04
(PID.TID 0000.0001) %MON dynstat_wvel_min             =  -1.0703725722703E-04
(PID.TID 0000.0001) %MON dynstat_wvel_mean            =   8.3184736762450E-22
(PID.TID 0000.0001) %MON dynstat_wvel_sd              =   3.0060936612786E-05
(PID.TID 0000.0001) %MON dynstat_wvel_del2            =   3.1642600755289E-07
(PID.TID 0000.0001) %MON dynstat_theta_max            =   2.0000675533542E+01
(PID.TID 0000.0001) %MON dynstat_theta_min            =   6.0002109372769E+00
(PID.TID 0000.0001) %MON dynstat_theta_mean           =   1.1000000040996E+01
(PID.TID 0000.0001) %MON dynstat_theta_sd             =   5.3842024425558E+00
(PID.TID 0000.0001) %MON dynstat_theta_del2           =   7.7646962788148E-06
(PID.TID 0000.0001) %MON dynstat_salt_max             =   1.0000000000000E+01
(PID.TID 0000.0001) %MON dynstat_salt_min             =   1.0000000000000E+01
(PID.TID 0000.0001) %MON dynstat_salt_mean            =   1.0000000000000E+01
(PID.TID 0000.0001) %MON dynstat_salt_sd              =   0.0000000000000E+00
(PID.TID 0000.0001) %MON dynstat_salt_del2            =   0.0000000000000E+00
(PID.TID 0000.0001) %MON advcfl_uvel_max              =   2.1399731621522E-04
(PID.TID 0000.0001) %MON advcfl_vvel_max              =   2.1399819966086E-04
(PID.TID 0000.0001) %MON advcfl_wvel_max              =   5.1380422730259E-04
(PID.TID 0000.0001) %MON advcfl_W_hf_max              =   3.8529939119684E-04
(PID.TID 0000.0001) %MON pe_b_mean                    =  -1.0784240963491E-04
(PID.TID 0000.0001) %MON ke_max                       =   1.9972175079815E-04
(PID.TID 0000.0001) %MON ke_mean                      =   6.5002985182741E-05
(PID.TID 0000.0001) %MON ke_vol                       =   5.6340000000000E+16
(PID.TID 0000.0001) %MON vort_r_min                   =  -5.9472483647028E-08
(PID.TID 0000.0001) %MON vort_r_max                   =   5.9472528754793E-08
(PID.TID 0000.0001) %MON vort_a_mean                  =   1.0000000000000E-04
(PID.TID 0000.0001) %MON vort_a_sd                    =   1.0054981022804E-08
(PID.TID 0000.0001) %MON vort_p_mean                  =   1.0398839738941E-04
(PID.TID 0000.0001) %MON vort_p_sd                    =   3.0798698875689E-05
(PID.TID 0000.0001) %MON surfExpan_theta_mean         =  -5.8151047085211E-08
(PID.TID 0000.0001) %MON surfExpan_salt_mean          =   4.2317816666944E-21
(PID.TID 0000.0001) // =======================================================
(PID.TID 0000.0001) // End MONITOR dynamic field statistics
(PID.TID 0000.0001) // =======================================================
 cg2d: Sum(rhs),rhsMax =  -1.36779476633819E-13  2.03007310000329E+00
(PID.TID 0000.0001)                    cg2d_init_res =    5.27275773877491E+00
(PID.TID 0000.0001)                       cg2d_iters =    34
(PID.TID 0000.0001)                         cg2d_res =    9.31576212757430E-14
(PID.TID 0000.0001) // =======================================================
(PID.TID 0000.0001) // Begin MONITOR dynamic field statistics
(PID.TID 0000.0001) // =======================================================
(PID.TID 0000.0001) %MON time_tsnumber                =                     5
(PID.TID 0000.0001) %MON time_secondsf                =   6.0000000000000E+03
(PID.TID 0000.0001) %MON dynstat_eta_max              =   5.1882222962407E-01
(PID.TID 0000.0001) %MON dynstat_eta_min              =  -5.1880597494369E-01
(PID.TID 0000.0001) %MON dynstat_eta_mean             =   1.0122692580760E-17
(PID.TID 0000.0001) %MON dynstat_eta_sd               =   2.3660172751482E-01
(PID.TID 0000.0001) %MON dynstat_eta_del2             =   2.4412533431869E-03
(PID.TID 0000.0001) %MON dynstat_uvel_max             =   1.8514920844354E-02
(PID.TID 0000.0001) %MON dynstat_uvel_min             =  -1.8514920844354E-02
(PID.TID 0000.0001) %MON dynstat_uvel_mean            =   1.0268423676577E-18
(PID.TID 0000.0001) %MON dynstat_uvel_sd              =   7.7432996470765E-03
(PID.TID 0000.0001) %MON dynstat_uvel_del2            =   1.0229449476800E-04
(PID.TID 0000.0001) %MON dynstat_vvel_max             =   1.8515007343977E-02
(PID.TID 0000.0001) %MON dynstat_vvel_min             =  -1.8515007343977E-02
(PID.TID 0000.0001) %MON dynstat_vvel_mean            =   3.1159354604786E-18
(PID.TID 0000.0001) %MON dynstat_vvel_sd              =   7.7432740569759E-03
(PID.TID 0000.0001) %MON dynstat_vvel_del2            =   1.0229115194140E-04
(PID.TID 0000.0001) %MON dynstat_wvel_max             =   9.8103244174897E-05
(PID.TID 0000.0001) %MON dynstat_wvel_min             =  -9.8100281115036E-05
(PID.TID 0000.0001) %MON dynstat_wvel_mean            =   1.7604211733449E-21
(PID.TID 0000.0001) %MON dynstat_wvel_sd              =   2.6575981890152E-05
(PID.TID 0000.0001) %MON dynstat_wvel_del2            =   2.7464182771244E-07
(PID.TID 0000.0001) %MON dynstat_theta_max            =   2.0001186792087E+01
(PID.TID 0000.0001) %MON dynstat_theta_min            =   6.0002408438708E+00
(PID.TID 0000.0001) %MON dynstat_theta_mean           =   1.1000000084191E+01
(PID.TID 0000.0001) %MON dynstat_theta_sd             =   5.3839619661975E+00
(PID.TID 0000.0001) %MON dynstat_theta_del2           =   1.0351927806649E-05
(PID.TID 0000.0001) %MON dynstat_salt_max             =   1.0000000000000E+01
(PID.TID 0000.0001) %MON dynstat_salt_min             =   1.0000000000000E+01
(PID.TID 0000.0001) %MON dynstat_salt_mean            =   1.0000000000000E+01
(PID.TID 0000.0001) %MON dynstat_salt_sd              =   0.0000000000000E+00
(PID.TID 0000.0001) %MON dynstat_salt_del2            =   0.0000000000000E+00
(PID.TID 0000.0001) %MON advcfl_uvel_max              =   2.2217905013225E-04
(PID.TID 0000.0001) %MON advcfl_vvel_max              =   2.2218008812773E-04
(PID.TID 0000.0001) %MON advcfl_wvel_max              =   4.7089557203951E-04
(PID.TID 0000.0001) %MON advcfl_W_hf_max              =   3.5306901588359E-04
(PID.TID 0000.0001) %MON pe_b_mean                    =  -1.0833714994443E-04
(PID.TID 0000.0001) %MON ke_max                       =   1.9151348315950E-04
(PID.TID 0000.0001) %MON ke_mean                      =   5.8702704625747E-05
(PID.TID 0000.0001) %MON ke_vol                       =   5.6340000000000E+16
(PID.TID 0000.0001) %MON vort_r_min                   =  -4.4715400563557E-08
(PID.TID 0000.0001) %MON vort_r_max                   =   4.4715112663732E-08
(PID.TID 0000.0001) %MON vort_a_mean                  =   1.0000000000000E-04
(PID.TID 0000.0001) %MON vort_a_sd                    =   1.1466705485181E-08
(PID.TID 0000.0001) %MON vort_p_mean                  =   1.0398839738941E-04
(PID.TID 0000.0001) %MON vort_p_sd                    =   3.0798699136282E-05
(PID.TID 0000.0001) %MON surfExpan_theta_mean         =  -6.9650582661069E-08
(PID.TID 0000.0001) %MON surfExpan_salt_mean          =  -2.2216853750146E-20
(PID.TID 0000.0001) // =======================================================
(PID.TID 0000.0001) // End MONITOR dynamic field statistics
(PID.TID 0000.0001) // =======================================================
 cg2d: Sum(rhs),rhsMax =  -3.24185123190546E-13  2.39420955438585E+00
(PID.TID 0000.0001)                    cg2d_init_res =    3.36071754825145E+00
(PID.TID 0000.0001)                       cg2d_iters =    34
(PID.TID 0000.0001)                         cg2d_res =    5.75986173828146E-14
(PID.TID 0000.0001) // =======================================================
(PID.TID 0000.0001) // Begin MONITOR dynamic field statistics
(PID.TID 0000.0001) // =======================================================
(PID.TID 0000.0001) %MON time_tsnumber                =                     6
(PID.TID 0000.0001) %MON time_secondsf                =   7.2000000000000E+03
(PID.TID 0000.0001) %MON dynstat_eta_max              =   6.1139604992383E-01
(PID.TID 0000.0001) %MON dynstat_eta_min              =  -6.1138327310032E-01
(PID.TID 0000.0001) %MON dynstat_eta_mean             =   1.2757365992190E-17
(PID.TID 0000.0001) %MON dynstat_eta_sd               =   2.7443773042957E-01
(PID.TID 0000.0001) %MON dynstat_eta_del2             =   2.7971970544605E-03
(PID.TID 0000.0001) %MON dynstat_uvel_max             =   1.7536203985274E-02
(PID.TID 0000.0001) %MON dynstat_uvel_min             =  -1.7536203985274E-02
(PID.TID 0000.0001) %MON dynstat_uvel_mean            =  -8.1439222262509E-19
(PID.TID 0000.0001) %MON dynstat_uvel_sd              =   6.8074204830686E-03
(PID.TID 0000.0001) %MON dynstat_uvel_del2            =   8.6109464398967E-05
(PID.TID 0000.0001) %MON dynstat_vvel_max             =   1.7536272263998E-02
(PID.TID 0000.0001) %MON dynstat_vvel_min             =  -1.7536272263998E-02
(PID.TID 0000.0001) %MON dynstat_vvel_mean            =   3.1159354604786E-18
(PID.TID 0000.0001) %MON dynstat_vvel_sd              =   6.8073914763355E-03
(PID.TID 0000.0001) %MON dynstat_vvel_del2            =   8.6105131090945E-05
(PID.TID 0000.0001) %MON dynstat_wvel_max             =   7.7144850249797E-05
(PID.TID 0000.0001) %MON dynstat_wvel_min             =  -7.7147748463862E-05
(PID.TID 0000.0001) %MON dynstat_wvel_mean            =  -4.2559632762184E-22
(PID.TID 0000.0001) %MON dynstat_wvel_sd              =   1.9994949790005E-05
(PID.TID 0000.0001) %MON dynstat_wvel_del2            =   2.0264826010246E-07
(PID.TID 0000.0001) %MON dynstat_theta_max            =   2.0001539518074E+01
(PID.TID 0000.0001) %MON dynstat_theta_min            =   6.0002813261688E+00
(PID.TID 0000.0001) %MON dynstat_theta_mean           =   1.1000000130122E+01
(PID.TID 0000.0001) %MON dynstat_theta_sd             =   5.3837215164893E+00
(PID.TID 0000.0001) %MON dynstat_theta_del2           =   1.2355987769101E-05
(PID.TID 0000.0001) %MON dynstat_salt_max             =   1.0000000000000E+01
(PID.TID 0000.0001) %MON dynstat_salt_min             =   1.0000000000000E+01
(PID.TID 0000.0001) %MON dynstat_salt_mean            =   1.0000000000000E+01
(PID.TID 0000.0001) %MON dynstat_salt_sd              =   0.0000000000000E+00
(PID.TID 0000.0001) %MON dynstat_salt_del2            =   0.0000000000000E+00
(PID.TID 0000.0001) %MON advcfl_uvel_max              =   2.1043444782329E-04
(PID.TID 0000.0001) %MON advcfl_vvel_max              =   2.1043526716797E-04
(PID.TID 0000.0001) %MON advcfl_wvel_max              =   3.7030919262654E-04
(PID.TID 0000.0001) %MON advcfl_W_hf_max              =   2.7756773709502E-04
(PID.TID 0000.0001) %MON pe_b_mean                    =  -1.0073168959855E-04
(PID.TID 0000.0001) %MON ke_max                       =   1.5675584598627E-04
(PID.TID 0000.0001) %MON ke_mean                      =   4.5370202585832E-05
(PID.TID 0000.0001) %MON ke_vol                       =   5.6340000000000E+16
(PID.TID 0000.0001) %MON vort_r_min                   =  -2.9325543178925E-08
(PID.TID 0000.0001) %MON vort_r_max                   =   2.9334660369137E-08
(PID.TID 0000.0001) %MON vort_a_mean                  =   1.0000000000000E-04
(PID.TID 0000.0001) %MON vort_a_sd                    =   1.3020108304575E-08
(PID.TID 0000.0001) %MON vort_p_mean                  =   1.0398839738941E-04
(PID.TID 0000.0001) %MON vort_p_sd                    =   3.0798699611735E-05
(PID.TID 0000.0001) %MON surfExpan_theta_mean         =  -6.3099715313429E-08
(PID.TID 0000.0001) %MON surfExpan_salt_mean          =  -1.0579454166736E-20
(PID.TID 0000.0001) // =======================================================
(PID.TID 0000.0001) // End MONITOR dynamic field statistics
(PID.TID 0000.0001) // =======================================================
 cg2d: Sum(rhs),rhsMax =  -2.66453525910038E-13  2.62338747279064E+00
(PID.TID 0000.0001)                    cg2d_init_res =    1.79906136018672E+00
(PID.TID 0000.0001)                       cg2d_iters =    33
(PID.TID 0000.0001)                         cg2d_res =    9.02671933090920E-14
(PID.TID 0000.0001) // =======================================================
(PID.TID 0000.0001) // Begin MONITOR dynamic field statistics
(PID.TID 0000.0001) // =======================================================
(PID.TID 0000.0001) %MON time_tsnumber                =                     7
(PID.TID 0000.0001) %MON time_secondsf                =   8.4000000000000E+03
(PID.TID 0000.0001) %MON dynstat_eta_max              =   6.6912965978854E-01
(PID.TID 0000.0001) %MON dynstat_eta_min              =  -6.6912860100881E-01
(PID.TID 0000.0001) %MON dynstat_eta_mean             =   7.8208200212993E-17
(PID.TID 0000.0001) %MON dynstat_eta_sd               =   2.9607523814104E-01
(PID.TID 0000.0001) %MON dynstat_eta_del2             =   2.9850822885585E-03
(PID.TID 0000.0001) %MON dynstat_uvel_max             =   1.5237414741347E-02
(PID.TID 0000.0001) %MON dynstat_uvel_min             =  -1.5237414741347E-02
(PID.TID 0000.0001) %MON dynstat_uvel_mean            =   2.6733309916606E-18
(PID.TID 0000.0001) %MON dynstat_uvel_sd              =   5.8320359065601E-03
(PID.TID 0000.0001) %MON dynstat_uvel_del2            =   6.9867717772270E-05
(PID.TID 0000.0001) %MON dynstat_vvel_max             =   1.5237443022960E-02
(PID.TID 0000.0001) %MON dynstat_vvel_min             =  -1.5237443022960E-02
(PID.TID 0000.0001) %MON dynstat_vvel_mean            =  -2.8326686004351E-19
(PID.TID 0000.0001) %MON dynstat_vvel_sd              =   5.8320086906209E-03
(PID.TID 0000.0001) %MON dynstat_vvel_del2            =   6.9863940915590E-05
(PID.TID 0000.0001) %MON dynstat_wvel_max             =   4.8111341553934E-05
(PID.TID 0000.0001) %MON dynstat_wvel_min             =  -4.8121106590415E-05
(PID.TID 0000.0001) %MON dynstat_wvel_mean            =   1.3541701333422E-22
(PID.TID 0000.0001) %MON dynstat_wvel_sd              =   1.1742790961584E-05
(PID.TID 0000.0001) %MON dynstat_wvel_del2            =   1.1789200053985E-07
(PID.TID 0000.0001) %MON dynstat_theta_max            =   2.0001640111462E+01
(PID.TID 0000.0001) %MON dynstat_theta_min            =   6.0003386265456E+00
(PID.TID 0000.0001) %MON dynstat_theta_mean           =   1.1000000165623E+01
(PID.TID 0000.0001) %MON dynstat_theta_sd             =   5.3834810742476E+00
(PID.TID 0000.0001) %MON dynstat_theta_del2           =   1.3568837621821E-05
(PID.TID 0000.0001) %MON dynstat_salt_max             =   1.0000000000000E+01
(PID.TID 0000.0001) %MON dynstat_salt_min             =   1.0000000000000E+01
(PID.TID 0000.0001) %MON dynstat_salt_mean            =   1.0000000000000E+01
(PID.TID 0000.0001) %MON dynstat_salt_sd              =   0.0000000000000E+00
(PID.TID 0000.0001) %MON dynstat_salt_del2            =   0.0000000000000E+00
(PID.TID 0000.0001) %MON advcfl_uvel_max              =   1.8284897689616E-04
(PID.TID 0000.0001) %MON advcfl_vvel_max              =   1.8284931627552E-04
(PID.TID 0000.0001) %MON advcfl_wvel_max              =   2.3098131163399E-04
(PID.TID 0000.0001) %MON advcfl_W_hf_max              =   1.7300195294946E-04
(PID.TID 0000.0001) %MON pe_b_mean                    =  -9.3551413596687E-05
(PID.TID 0000.0001) %MON ke_max                       =   1.1748146543644E-04
(PID.TID 0000.0001) %MON ke_mean                      =   3.3300117544976E-05
(PID.TID 0000.0001) %MON ke_vol                       =   5.6340000000000E+16
(PID.TID 0000.0001) %MON vort_r_min                   =  -3.3159114059730E-08
(PID.TID 0000.0001) %MON vort_r_max                   =   3.3170440021084E-08
(PID.TID 0000.0001) %MON vort_a_mean                  =   1.0000000000000E-04
(PID.TID 0000.0001) %MON vort_a_sd                    =   1.4548924161328E-08
(PID.TID 0000.0001) %MON vort_p_mean                  =   1.0398839738941E-04
(PID.TID 0000.0001) %MON vort_p_sd                    =   3.0798700412578E-05
(PID.TID 0000.0001) %MON surfExpan_theta_mean         =  -4.0164009548836E-08
(PID.TID 0000.0001) %MON surfExpan_salt_mean          =  -2.3539285520988E-20
(PID.TID 0000.0001) // =======================================================
(PID.TID 0000.0001) // End MONITOR dynamic field statistics
(PID.TID 0000.0001) // =======================================================
 cg2d: Sum(rhs),rhsMax =  -8.34887714518118E-14  2.70007852965821E+00
(PID.TID 0000.0001)                    cg2d_init_res =    6.25423958833092E-01
(PID.TID 0000.0001)                       cg2d_iters =    33
(PID.TID 0000.0001)                         cg2d_res =    6.40546375893666E-14
(PID.TID 0000.0001) // =======================================================
(PID.TID 0000.0001) // Begin MONITOR dynamic field statistics
(PID.TID 0000.0001) // =======================================================
(PID.TID 0000.0001) %MON time_tsnumber                =                     8
(PID.TID 0000.0001) %MON time_secondsf                =   9.6000000000000E+03
(PID.TID 0000.0001) %MON dynstat_eta_max              =   6.8810274952407E-01
(PID.TID 0000.0001) %MON dynstat_eta_min              =  -6.8811864057415E-01
(PID.TID 0000.0001) %MON dynstat_eta_mean             =   1.0926961306354E-16
(PID.TID 0000.0001) %MON dynstat_eta_sd               =   3.0074297179599E-01
(PID.TID 0000.0001) %MON dynstat_eta_del2             =   3.0027670730547E-03
(PID.TID 0000.0001) %MON dynstat_uvel_max             =   1.2169878143416E-02
(PID.TID 0000.0001) %MON dynstat_uvel_min             =  -1.2169878143416E-02
(PID.TID 0000.0001) %MON dynstat_uvel_mean            =  -9.2946938451777E-20
(PID.TID 0000.0001) %MON dynstat_uvel_sd              =   5.3229967588439E-03
(PID.TID 0000.0001) %MON dynstat_uvel_del2            =   6.6583059762983E-05
(PID.TID 0000.0001) %MON dynstat_vvel_max             =   1.2169740292514E-02
(PID.TID 0000.0001) %MON dynstat_vvel_min             =  -1.2169740292514E-02
(PID.TID 0000.0001) %MON dynstat_vvel_mean            =   5.6653372008702E-19
(PID.TID 0000.0001) %MON dynstat_vvel_sd              =   5.3229879922716E-03
(PID.TID 0000.0001) %MON dynstat_vvel_del2            =   6.6584708131954E-05
(PID.TID 0000.0001) %MON dynstat_wvel_max             =   1.6288665013120E-05
(PID.TID 0000.0001) %MON dynstat_wvel_min             =  -1.6301768556050E-05
(PID.TID 0000.0001) %MON dynstat_wvel_mean            =   2.9017931428762E-22
(PID.TID 0000.0001) %MON dynstat_wvel_sd              =   4.2493945934097E-06
(PID.TID 0000.0001) %MON dynstat_wvel_del2            =   5.4110328080426E-08
(PID.TID 0000.0001) %MON dynstat_theta_max            =   2.0001435882672E+01
(PID.TID 0000.0001) %MON dynstat_theta_min            =   6.0004162576411E+00
(PID.TID 0000.0001) %MON dynstat_theta_mean           =   1.1000000181465E+01
(PID.TID 0000.0001) %MON dynstat_theta_sd             =   5.3832406263843E+00
(PID.TID 0000.0001) %MON dynstat_theta_del2           =   1.3943613338364E-05
(PID.TID 0000.0001) %MON dynstat_salt_max             =   1.0000000000000E+01
(PID.TID 0000.0001) %MON dynstat_salt_min             =   1.0000000000000E+01
(PID.TID 0000.0001) %MON dynstat_salt_mean            =   1.0000000000000E+01
(PID.TID 0000.0001) %MON dynstat_salt_sd              =   0.0000000000000E+00
(PID.TID 0000.0001) %MON dynstat_salt_del2            =   0.0000000000000E+00
(PID.TID 0000.0001) %MON advcfl_uvel_max              =   1.4603853772099E-04
(PID.TID 0000.0001) %MON advcfl_vvel_max              =   1.4603688351017E-04
(PID.TID 0000.0001) %MON advcfl_wvel_max              =   7.8248489069042E-05
(PID.TID 0000.0001) %MON advcfl_W_hf_max              =   5.8388829233684E-05
(PID.TID 0000.0001) %MON pe_b_mean                    =  -9.2247691811590E-05
(PID.TID 0000.0001) %MON ke_max                       =   9.1535962694454E-05
(PID.TID 0000.0001) %MON ke_mean                      =   2.7740807779862E-05
(PID.TID 0000.0001) %MON ke_vol                       =   5.6340000000000E+16
(PID.TID 0000.0001) %MON vort_r_min                   =  -4.7143928921676E-08
(PID.TID 0000.0001) %MON vort_r_max                   =   4.7147385184426E-08
(PID.TID 0000.0001) %MON vort_a_mean                  =   1.0000000000000E-04
(PID.TID 0000.0001) %MON vort_a_sd                    =   1.5766121531329E-08
(PID.TID 0000.0001) %MON vort_p_mean                  =   1.0398839738941E-04
(PID.TID 0000.0001) %MON vort_p_sd                    =   3.0798701384749E-05
(PID.TID 0000.0001) %MON surfExpan_theta_mean         =  -9.0096543725840E-09
(PID.TID 0000.0001) %MON surfExpan_salt_mean          =  -3.7028089583576E-21
(PID.TID 0000.0001) // =======================================================
(PID.TID 0000.0001) // End MONITOR dynamic field statistics
(PID.TID 0000.0001) // =======================================================
 cg2d: Sum(rhs),rhsMax =  -3.00204305858642E-13  2.63083310899421E+00
(PID.TID 0000.0001)                    cg2d_init_res =    1.03984266857430E+00
(PID.TID 0000.0001)                       cg2d_iters =    33
(PID.TID 0000.0001)                         cg2d_res =    8.46742343909285E-14
(PID.TID 0000.0001) // =======================================================
(PID.TID 0000.0001) // Begin MONITOR dynamic field statistics
(PID.TID 0000.0001) // =======================================================
(PID.TID 0000.0001) %MON time_tsnumber                =                     9
(PID.TID 0000.0001) %MON time_secondsf                =   1.0800000000000E+04
(PID.TID 0000.0001) %MON dynstat_eta_max              =   6.7031651889181E-01
(PID.TID 0000.0001) %MON dynstat_eta_min              =  -6.7034871769192E-01
(PID.TID 0000.0001) %MON dynstat_eta_mean             =   1.4560037273695E-16
(PID.TID 0000.0001) %MON dynstat_eta_sd               =   2.9012560355633E-01
(PID.TID 0000.0001) %MON dynstat_eta_del2             =   2.8735276199404E-03
(PID.TID 0000.0001) %MON dynstat_uvel_max             =   1.0668566799162E-02
(PID.TID 0000.0001) %MON dynstat_uvel_min             =  -1.0668566799162E-02
(PID.TID 0000.0001) %MON dynstat_uvel_mean            =  -3.8949193255983E-19
(PID.TID 0000.0001) %MON dynstat_uvel_sd              =   5.4390892318645E-03
(PID.TID 0000.0001) %MON dynstat_uvel_del2            =   7.3347073744879E-05
(PID.TID 0000.0001) %MON dynstat_vvel_max             =   1.0667462668697E-02
(PID.TID 0000.0001) %MON dynstat_vvel_min             =  -1.0667462668697E-02
(PID.TID 0000.0001) %MON dynstat_vvel_mean            =  -1.1330674401740E-18
(PID.TID 0000.0001) %MON dynstat_vvel_sd              =   5.4391239789766E-03
(PID.TID 0000.0001) %MON dynstat_vvel_del2            =   7.3348173064582E-05
(PID.TID 0000.0001) %MON dynstat_wvel_max             =   2.6641418192173E-05
(PID.TID 0000.0001) %MON dynstat_wvel_min             =  -2.6643936038332E-05
(PID.TID 0000.0001) %MON dynstat_wvel_mean            =   1.3420793285802E-22
(PID.TID 0000.0001) %MON dynstat_wvel_sd              =   6.8466434919196E-06
(PID.TID 0000.0001) %MON dynstat_wvel_del2            =   7.3997150115461E-08
(PID.TID 0000.0001) %MON dynstat_theta_max            =   2.0000923415215E+01
(PID.TID 0000.0001) %MON dynstat_theta_min            =   6.0005144450455E+00
(PID.TID 0000.0001) %MON dynstat_theta_mean           =   1.1000000175655E+01
(PID.TID 0000.0001) %MON dynstat_theta_sd             =   5.3830001703902E+00
(PID.TID 0000.0001) %MON dynstat_theta_del2           =   1.3556046525276E-05
(PID.TID 0000.0001) %MON dynstat_salt_max             =   1.0000000000000E+01
(PID.TID 0000.0001) %MON dynstat_salt_min             =   1.0000000000000E+01
(PID.TID 0000.0001) %MON dynstat_salt_mean            =   1.0000000000000E+01
(PID.TID 0000.0001) %MON dynstat_salt_sd              =   0.0000000000000E+00
(PID.TID 0000.0001) %MON dynstat_salt_del2            =   0.0000000000000E+00
(PID.TID 0000.0001) %MON advcfl_uvel_max              =   1.2802280158995E-04
(PID.TID 0000.0001) %MON advcfl_vvel_max              =   1.2800955202437E-04
(PID.TID 0000.0001) %MON advcfl_wvel_max              =   1.2789089298399E-04
(PID.TID 0000.0001) %MON advcfl_W_hf_max              =   9.6623639577582E-05
(PID.TID 0000.0001) %MON pe_b_mean                    =  -9.7262373620662E-05
(PID.TID 0000.0001) %MON ke_max                       =   8.4812810841865E-05
(PID.TID 0000.0001) %MON ke_mean                      =   2.8964267971338E-05
(PID.TID 0000.0001) %MON ke_vol                       =   5.6340000000000E+16
(PID.TID 0000.0001) %MON vort_r_min                   =  -6.4235589446321E-08
(PID.TID 0000.0001) %MON vort_r_max                   =   6.4236482961341E-08
(PID.TID 0000.0001) %MON vort_a_mean                  =   1.0000000000000E-04
(PID.TID 0000.0001) %MON vort_a_sd                    =   1.6413207619824E-08
(PID.TID 0000.0001) %MON vort_p_mean                  =   1.0398839738941E-04
(PID.TID 0000.0001) %MON vort_p_sd                    =   3.0798702197688E-05
(PID.TID 0000.0001) %MON surfExpan_theta_mean         =   2.0130946947976E-08
(PID.TID 0000.0001) %MON surfExpan_salt_mean          =  -1.2695345000083E-20
(PID.TID 0000.0001) // =======================================================
(PID.TID 0000.0001) // End MONITOR dynamic field statistics
(PID.TID 0000.0001) // =======================================================
 cg2d: Sum(rhs),rhsMax =  -5.43565192856477E-13  2.44294115055914E+00
(PID.TID 0000.0001)                    cg2d_init_res =    2.06581976588045E+00
(PID.TID 0000.0001)                       cg2d_iters =    34
(PID.TID 0000.0001)                         cg2d_res =    4.89584435967846E-14
(PID.TID 0000.0001) // =======================================================
(PID.TID 0000.0001) // Begin MONITOR dynamic field statistics
(PID.TID 0000.0001) // =======================================================
(PID.TID 0000.0001) %MON time_tsnumber                =                    10
(PID.TID 0000.0001) %MON time_secondsf                =   1.2000000000000E+04
(PID.TID 0000.0001) %MON dynstat_eta_max              =   6.2288688399073E-01
(PID.TID 0000.0001) %MON dynstat_eta_min              =  -6.2292901925199E-01
(PID.TID 0000.0001) %MON dynstat_eta_mean             =   1.2812832800852E-16
(PID.TID 0000.0001) %MON dynstat_eta_sd               =   2.6783313841019E-01
(PID.TID 0000.0001) %MON dynstat_eta_del2             =   2.6363519926687E-03
(PID.TID 0000.0001) %MON dynstat_uvel_max             =   1.2529575761296E-02
(PID.TID 0000.0001) %MON dynstat_uvel_min             =  -1.2529575761296E-02
(PID.TID 0000.0001) %MON dynstat_uvel_mean            =  -1.4163343002175E-18
(PID.TID 0000.0001) %MON dynstat_uvel_sd              =   5.8367574991383E-03
(PID.TID 0000.0001) %MON dynstat_uvel_del2            =   7.9651454678117E-05
(PID.TID 0000.0001) %MON dynstat_vvel_max             =   1.2529003649843E-02
(PID.TID 0000.0001) %MON dynstat_vvel_min             =  -1.2529003649843E-02
(PID.TID 0000.0001) %MON dynstat_vvel_mean            =  -4.1073694706309E-18
(PID.TID 0000.0001) %MON dynstat_vvel_sd              =   5.8368505532888E-03
(PID.TID 0000.0001) %MON dynstat_vvel_del2            =   7.9652725693564E-05
(PID.TID 0000.0001) %MON dynstat_wvel_max             =   3.9516415366609E-05
(PID.TID 0000.0001) %MON dynstat_wvel_min             =  -3.9524695750895E-05
(PID.TID 0000.0001) %MON dynstat_wvel_mean            =  -5.9970391619441E-22
(PID.TID 0000.0001) %MON dynstat_wvel_sd              =   1.2580107086903E-05
(PID.TID 0000.0001) %MON dynstat_wvel_del2            =   1.2987142145646E-07
(PID.TID 0000.0001) %MON dynstat_theta_max            =   2.0000144344186E+01
(PID.TID 0000.0001) %MON dynstat_theta_min            =   6.0006304099922E+00
(PID.TID 0000.0001) %MON dynstat_theta_mean           =   1.1000000153086E+01
(PID.TID 0000.0001) %MON dynstat_theta_sd             =   5.3827597136921E+00
(PID.TID 0000.0001) %MON dynstat_theta_del2           =   1.2573181302115E-05
(PID.TID 0000.0001) %MON dynstat_salt_max             =   1.0000000000000E+01
(PID.TID 0000.0001) %MON dynstat_salt_min             =   1.0000000000000E+01
(PID.TID 0000.0001) %MON dynstat_salt_mean            =   1.0000000000000E+01
(PID.TID 0000.0001) %MON dynstat_salt_sd              =   0.0000000000000E+00
(PID.TID 0000.0001) %MON dynstat_salt_del2            =   0.0000000000000E+00
(PID.TID 0000.0001) %MON advcfl_uvel_max              =   1.5035490913555E-04
(PID.TID 0000.0001) %MON advcfl_vvel_max              =   1.5034804379811E-04
(PID.TID 0000.0001) %MON advcfl_wvel_max              =   1.8971853960430E-04
(PID.TID 0000.0001) %MON advcfl_W_hf_max              =   1.4272398566540E-04
(PID.TID 0000.0001) %MON pe_b_mean                    =  -1.0511078636426E-04
(PID.TID 0000.0001) %MON ke_max                       =   9.1516264559986E-05
(PID.TID 0000.0001) %MON ke_mean                      =   3.3354746065693E-05
(PID.TID 0000.0001) %MON ke_vol                       =   5.6340000000000E+16
(PID.TID 0000.0001) %MON vort_r_min                   =  -7.4265441762528E-08
(PID.TID 0000.0001) %MON vort_r_max                   =   7.4263173818803E-08
(PID.TID 0000.0001) %MON vort_a_mean                  =   1.0000000000000E-04
(PID.TID 0000.0001) %MON vort_a_sd                    =   1.6335113270238E-08
(PID.TID 0000.0001) %MON vort_p_mean                  =   1.0398839738941E-04
(PID.TID 0000.0001) %MON vort_p_sd                    =   3.0798702518314E-05
(PID.TID 0000.0001) %MON surfExpan_theta_mean         =   3.9498824364985E-08
(PID.TID 0000.0001) %MON surfExpan_salt_mean          =   2.8829012604356E-20
(PID.TID 0000.0001) // =======================================================
(PID.TID 0000.0001) // End MONITOR dynamic field statistics
(PID.TID 0000.0001) // =======================================================
 cg2d: Sum(rhs),rhsMax =  -5.81756864903582E-13  2.17839487313239E+00
(PID.TID 0000.0001)                    cg2d_init_res =    2.98920657718265E+00
(PID.TID 0000.0001)                       cg2d_iters =    34
(PID.TID 0000.0001)                         cg2d_res =    6.69969678172696E-14
(PID.TID 0000.0001) // =======================================================
(PID.TID 0000.0001) // Begin MONITOR dynamic field statistics
(PID.TID 0000.0001) // =======================================================
(PID.TID 0000.0001) %MON time_tsnumber                =                    11
(PID.TID 0000.0001) %MON time_secondsf                =   1.3200000000000E+04
(PID.TID 0000.0001) %MON dynstat_eta_max              =   5.5643926557886E-01
(PID.TID 0000.0001) %MON dynstat_eta_min              =  -5.5648215487898E-01
(PID.TID 0000.0001) %MON dynstat_eta_mean             =   1.0940828008520E-16
(PID.TID 0000.0001) %MON dynstat_eta_sd               =   2.3866735607172E-01
(PID.TID 0000.0001) %MON dynstat_eta_del2             =   2.3410343907413E-03
(PID.TID 0000.0001) %MON dynstat_uvel_max             =   1.3881624161929E-02
(PID.TID 0000.0001) %MON dynstat_uvel_min             =  -1.3881624161929E-02
(PID.TID 0000.0001) %MON dynstat_uvel_mean            =  -9.9143401015228E-19
(PID.TID 0000.0001) %MON dynstat_uvel_sd              =   6.0836008349859E-03
(PID.TID 0000.0001) %MON dynstat_uvel_del2            =   8.1609494236466E-05
(PID.TID 0000.0001) %MON dynstat_vvel_max             =   1.3882243768745E-02
(PID.TID 0000.0001) %MON dynstat_vvel_min             =  -1.3882243768745E-02
(PID.TID 0000.0001) %MON dynstat_vvel_mean            =  -4.2490029006526E-19
(PID.TID 0000.0001) %MON dynstat_vvel_sd              =   6.0837532255465E-03
(PID.TID 0000.0001) %MON dynstat_vvel_del2            =   8.1612138982266E-05
(PID.TID 0000.0001) %MON dynstat_wvel_max             =   5.5372386977508E-05
(PID.TID 0000.0001) %MON dynstat_wvel_min             =  -5.5373015343227E-05
(PID.TID 0000.0001) %MON dynstat_wvel_mean            =  -2.3214345143009E-22
(PID.TID 0000.0001) %MON dynstat_wvel_sd              =   1.6220251360182E-05
(PID.TID 0000.0001) %MON dynstat_wvel_del2            =   1.6263975950871E-07
(PID.TID 0000.0001) %MON dynstat_theta_max            =   1.9999175016552E+01
(PID.TID 0000.0001) %MON dynstat_theta_min            =   6.0007590598526E+00
(PID.TID 0000.0001) %MON dynstat_theta_mean           =   1.1000000122414E+01
(PID.TID 0000.0001) %MON dynstat_theta_sd             =   5.3825192691746E+00
(PID.TID 0000.0001) %MON dynstat_theta_del2           =   1.1220766760258E-05
(PID.TID 0000.0001) %MON dynstat_salt_max             =   1.0000000000000E+01
(PID.TID 0000.0001) %MON dynstat_salt_min             =   1.0000000000000E+01
(PID.TID 0000.0001) %MON dynstat_salt_mean            =   1.0000000000000E+01
(PID.TID 0000.0001) %MON dynstat_salt_sd              =   0.0000000000000E+00
(PID.TID 0000.0001) %MON dynstat_salt_del2            =   0.0000000000000E+00
(PID.TID 0000.0001) %MON advcfl_uvel_max              =   1.6657948994315E-04
(PID.TID 0000.0001) %MON advcfl_vvel_max              =   1.6658692522493E-04
(PID.TID 0000.0001) %MON advcfl_wvel_max              =   2.6579047364749E-04
(PID.TID 0000.0001) %MON advcfl_W_hf_max              =   1.9982238639196E-04
(PID.TID 0000.0001) %MON pe_b_mean                    =  -1.1120495066229E-04
(PID.TID 0000.0001) %MON ke_max                       =   9.9972843951851E-05
(PID.TID 0000.0001) %MON ke_mean                      =   3.6235955306816E-05
(PID.TID 0000.0001) %MON ke_vol                       =   5.6340000000000E+16
(PID.TID 0000.0001) %MON vort_r_min                   =  -7.6581253005467E-08
(PID.TID 0000.0001) %MON vort_r_max                   =   7.6576159242721E-08
(PID.TID 0000.0001) %MON vort_a_mean                  =   1.0000000000000E-04
(PID.TID 0000.0001) %MON vort_a_sd                    =   1.5501366651255E-08
(PID.TID 0000.0001) %MON vort_p_mean                  =   1.0398839738941E-04
(PID.TID 0000.0001) %MON vort_p_sd                    =   3.0798702172504E-05
(PID.TID 0000.0001) %MON surfExpan_theta_mean         =   4.6315381584274E-08
(PID.TID 0000.0001) %MON surfExpan_salt_mean          =   2.0629935625135E-20
(PID.TID 0000.0001) // =======================================================
(PID.TID 0000.0001) // End MONITOR dynamic field statistics
(PID.TID 0000.0001) // =======================================================
 cg2d: Sum(rhs),rhsMax =  -7.91366971952812E-13  1.88562879442355E+00
(PID.TID 0000.0001)                    cg2d_init_res =    3.67884399639926E+00
(PID.TID 0000.0001)                       cg2d_iters =    34
(PID.TID 0000.0001)                         cg2d_res =    8.03809640382288E-14
(PID.TID 0000.0001) // =======================================================
(PID.TID 0000.0001) // Begin MONITOR dynamic field statistics
(PID.TID 0000.0001) // =======================================================
(PID.TID 0000.0001) %MON time_tsnumber                =                    12
(PID.TID 0000.0001) %MON time_secondsf                =   1.4400000000000E+04
(PID.TID 0000.0001) %MON dynstat_eta_max              =   4.8306615963932E-01
(PID.TID 0000.0001) %MON dynstat_eta_min              =  -4.8310168698316E-01
(PID.TID 0000.0001) %MON dynstat_eta_mean             =   1.1287495562655E-16
(PID.TID 0000.0001) %MON dynstat_eta_sd               =   2.0779037305983E-01
(PID.TID 0000.0001) %MON dynstat_eta_del2             =   2.0334656907021E-03
(PID.TID 0000.0001) %MON dynstat_uvel_max             =   1.4073774627903E-02
(PID.TID 0000.0001) %MON dynstat_uvel_min             =  -1.4073774627903E-02
(PID.TID 0000.0001) %MON dynstat_uvel_mean            =   5.6653372008702E-19
(PID.TID 0000.0001) %MON dynstat_uvel_sd              =   5.9445322296938E-03
(PID.TID 0000.0001) %MON dynstat_uvel_del2            =   7.8373655209905E-05
(PID.TID 0000.0001) %MON dynstat_vvel_max             =   1.4074348696356E-02
(PID.TID 0000.0001) %MON dynstat_vvel_min             =  -1.4074348696356E-02
(PID.TID 0000.0001) %MON dynstat_vvel_mean            =  -9.9143401015228E-19
(PID.TID 0000.0001) %MON dynstat_vvel_sd              =   5.9447363954173E-03
(PID.TID 0000.0001) %MON dynstat_vvel_del2            =   7.8377510208404E-05
(PID.TID 0000.0001) %MON dynstat_wvel_max             =   6.1150389913188E-05
(PID.TID 0000.0001) %MON dynstat_wvel_min             =  -6.1144254949616E-05
(PID.TID 0000.0001) %MON dynstat_wvel_mean            =  -1.0446455314354E-21
(PID.TID 0000.0001) %MON dynstat_wvel_sd              =   1.7277972023664E-05
(PID.TID 0000.0001) %MON dynstat_wvel_del2            =   1.7033575445421E-07
(PID.TID 0000.0001) %MON dynstat_theta_max            =   1.9998110882176E+01
(PID.TID 0000.0001) %MON dynstat_theta_min            =   6.0008940291793E+00
(PID.TID 0000.0001) %MON dynstat_theta_mean           =   1.1000000092171E+01
(PID.TID 0000.0001) %MON dynstat_theta_sd             =   5.3822788496489E+00
(PID.TID 0000.0001) %MON dynstat_theta_del2           =   9.7312694732967E-06
(PID.TID 0000.0001) %MON dynstat_salt_max             =   1.0000000000000E+01
(PID.TID 0000.0001) %MON dynstat_salt_min             =   1.0000000000000E+01
(PID.TID 0000.0001) %MON dynstat_salt_mean            =   1.0000000000000E+01
(PID.TID 0000.0001) %MON dynstat_salt_sd              =   0.0000000000000E+00
(PID.TID 0000.0001) %MON dynstat_salt_del2            =   0.0000000000000E+00
(PID.TID 0000.0001) %MON advcfl_uvel_max              =   1.6888529553484E-04
(PID.TID 0000.0001) %MON advcfl_vvel_max              =   1.6889218435628E-04
(PID.TID 0000.0001) %MON advcfl_wvel_max              =   2.9352187158330E-04
(PID.TID 0000.0001) %MON advcfl_W_hf_max              =   2.2064755743068E-04
(PID.TID 0000.0001) %MON pe_b_mean                    =  -1.1258096816053E-04
(PID.TID 0000.0001) %MON ke_max                       =   9.9360633361594E-05
(PID.TID 0000.0001) %MON ke_mean                      =   3.4598534433140E-05
(PID.TID 0000.0001) %MON ke_vol                       =   5.6340000000000E+16
(PID.TID 0000.0001) %MON vort_r_min                   =  -7.3497687086098E-08
(PID.TID 0000.0001) %MON vort_r_max                   =   7.3509261182917E-08
(PID.TID 0000.0001) %MON vort_a_mean                  =   1.0000000000000E-04
(PID.TID 0000.0001) %MON vort_a_sd                    =   1.4001651231508E-08
(PID.TID 0000.0001) %MON vort_p_mean                  =   1.0398839738941E-04
(PID.TID 0000.0001) %MON vort_p_sd                    =   3.0798701220423E-05
(PID.TID 0000.0001) %MON surfExpan_theta_mean         =   4.2569302282100E-08
(PID.TID 0000.0001) %MON surfExpan_salt_mean          =   1.4282263125094E-20
(PID.TID 0000.0001) // =======================================================
(PID.TID 0000.0001) // End MONITOR dynamic field statistics
(PID.TID 0000.0001) // =======================================================
 cg2d: Sum(rhs),rhsMax =  -9.09272657168003E-13  1.61634358387261E+00
(PID.TID 0000.0001)                    cg2d_init_res =    3.94668033592974E+00
(PID.TID 0000.0001)                       cg2d_iters =    34
(PID.TID 0000.0001)                         cg2d_res =    8.58771808808104E-14
(PID.TID 0000.0001) // =======================================================
(PID.TID 0000.0001) // Begin MONITOR dynamic field statistics
(PID.TID 0000.0001) // =======================================================
(PID.TID 0000.0001) %MON time_tsnumber                =                    13
(PID.TID 0000.0001) %MON time_secondsf                =   1.5600000000000E+04
(PID.TID 0000.0001) %MON dynstat_eta_max              =   4.1604639522632E-01
(PID.TID 0000.0001) %MON dynstat_eta_min              =  -4.1607174709174E-01
(PID.TID 0000.0001) %MON dynstat_eta_mean             =   1.3603234824281E-16
(PID.TID 0000.0001) %MON dynstat_eta_sd               =   1.7988931918926E-01
(PID.TID 0000.0001) %MON dynstat_eta_del2             =   1.7563408309007E-03
(PID.TID 0000.0001) %MON dynstat_uvel_max             =   1.3168361760444E-02
(PID.TID 0000.0001) %MON dynstat_uvel_min             =  -1.3168361760444E-02
(PID.TID 0000.0001) %MON dynstat_uvel_mean            =  -2.1245014503263E-19
(PID.TID 0000.0001) %MON dynstat_uvel_sd              =   5.3830682344942E-03
(PID.TID 0000.0001) %MON dynstat_uvel_del2            =   6.9038113210762E-05
(PID.TID 0000.0001) %MON dynstat_vvel_max             =   1.3168853638028E-02
(PID.TID 0000.0001) %MON dynstat_vvel_min             =  -1.3168853638028E-02
(PID.TID 0000.0001) %MON dynstat_vvel_mean            =  -9.2061729514141E-19
(PID.TID 0000.0001) %MON dynstat_vvel_sd              =   5.3833111175022E-03
(PID.TID 0000.0001) %MON dynstat_vvel_del2            =   6.9042552774737E-05
(PID.TID 0000.0001) %MON dynstat_wvel_max             =   5.7619132448796E-05
(PID.TID 0000.0001) %MON dynstat_wvel_min             =  -5.7609474062439E-05
(PID.TID 0000.0001) %MON dynstat_wvel_mean            =   8.1250208000532E-22
(PID.TID 0000.0001) %MON dynstat_wvel_sd              =   1.5893993021838E-05
(PID.TID 0000.0001) %MON dynstat_wvel_del2            =   1.5537368390826E-07
(PID.TID 0000.0001) %MON dynstat_theta_max            =   1.9997053217958E+01
(PID.TID 0000.0001) %MON dynstat_theta_min            =   6.0010285626278E+00
(PID.TID 0000.0001) %MON dynstat_theta_mean           =   1.1000000067978E+01
(PID.TID 0000.0001) %MON dynstat_theta_sd             =   5.3820384638739E+00
(PID.TID 0000.0001) %MON dynstat_theta_del2           =   8.3142469199397E-06
(PID.TID 0000.0001) %MON dynstat_salt_max             =   1.0000000000000E+01
(PID.TID 0000.0001) %MON dynstat_salt_min             =   1.0000000000000E+01
(PID.TID 0000.0001) %MON dynstat_salt_mean            =   1.0000000000000E+01
(PID.TID 0000.0001) %MON dynstat_salt_sd              =   0.0000000000000E+00
(PID.TID 0000.0001) %MON dynstat_salt_del2            =   0.0000000000000E+00
(PID.TID 0000.0001) %MON advcfl_uvel_max              =   1.5802034112532E-04
(PID.TID 0000.0001) %MON advcfl_vvel_max              =   1.5802624365634E-04
(PID.TID 0000.0001) %MON advcfl_wvel_max              =   2.7657183575422E-04
(PID.TID 0000.0001) %MON advcfl_W_hf_max              =   2.0793075012493E-04
(PID.TID 0000.0001) %MON pe_b_mean                    =  -1.0917606711382E-04
(PID.TID 0000.0001) %MON ke_max                       =   8.6609127396711E-05
(PID.TID 0000.0001) %MON ke_mean                      =   2.8371792822419E-05
(PID.TID 0000.0001) %MON ke_vol                       =   5.6340000000000E+16
(PID.TID 0000.0001) %MON vort_r_min                   =  -6.3567981094460E-08
(PID.TID 0000.0001) %MON vort_r_max                   =   6.3579956065273E-08
(PID.TID 0000.0001) %MON vort_a_mean                  =   1.0000000000000E-04
(PID.TID 0000.0001) %MON vort_a_sd                    =   1.2034581328426E-08
(PID.TID 0000.0001) %MON vort_p_mean                  =   1.0398839738941E-04
(PID.TID 0000.0001) %MON vort_p_sd                    =   3.0798699924377E-05
(PID.TID 0000.0001) %MON surfExpan_theta_mean         =   3.2842171215207E-08
(PID.TID 0000.0001) %MON surfExpan_salt_mean          =  -1.2695345000083E-20
(PID.TID 0000.0001) // =======================================================
(PID.TID 0000.0001) // End MONITOR dynamic field statistics
(PID.TID 0000.0001) // =======================================================
 cg2d: Sum(rhs),rhsMax =  -9.30810983845731E-13  1.40707676160856E+00
(PID.TID 0000.0001)                    cg2d_init_res =    3.58162450045845E+00
(PID.TID 0000.0001)                       cg2d_iters =    34
(PID.TID 0000.0001)                         cg2d_res =    7.96696341596955E-14
(PID.TID 0000.0001) // =======================================================
(PID.TID 0000.0001) // Begin MONITOR dynamic field statistics
(PID.TID 0000.0001) // =======================================================
(PID.TID 0000.0001) %MON time_tsnumber                =                    14
(PID.TID 0000.0001) %MON time_secondsf                =   1.6800000000000E+04
(PID.TID 0000.0001) %MON dynstat_eta_max              =   3.6345633341473E-01
(PID.TID 0000.0001) %MON dynstat_eta_min              =  -3.6347093219148E-01
(PID.TID 0000.0001) %MON dynstat_eta_mean             =   1.1065628328009E-16
(PID.TID 0000.0001) %MON dynstat_eta_sd               =   1.5844283739135E-01
(PID.TID 0000.0001) %MON dynstat_eta_del2             =   1.5453103670107E-03
(PID.TID 0000.0001) %MON dynstat_uvel_max             =   1.1510049427868E-02
(PID.TID 0000.0001) %MON dynstat_uvel_min             =  -1.1510049427868E-02
(PID.TID 0000.0001) %MON dynstat_uvel_mean            =   1.4163343002175E-18
(PID.TID 0000.0001) %MON dynstat_uvel_sd              =   4.5112574267645E-03
(PID.TID 0000.0001) %MON dynstat_uvel_del2            =   5.4984847089593E-05
(PID.TID 0000.0001) %MON dynstat_vvel_max             =   1.1510483360452E-02
(PID.TID 0000.0001) %MON dynstat_vvel_min             =  -1.1510483360452E-02
(PID.TID 0000.0001) %MON dynstat_vvel_mean            =  -4.9571700507614E-19
(PID.TID 0000.0001) %MON dynstat_vvel_sd              =   4.5115199861277E-03
(PID.TID 0000.0001) %MON dynstat_vvel_del2            =   5.4989854587549E-05
(PID.TID 0000.0001) %MON dynstat_wvel_max             =   4.6329287011851E-05
(PID.TID 0000.0001) %MON dynstat_wvel_min             =  -4.6319683928219E-05
(PID.TID 0000.0001) %MON dynstat_wvel_mean            =   6.1904920381358E-22
(PID.TID 0000.0001) %MON dynstat_wvel_sd              =   1.2570104791019E-05
(PID.TID 0000.0001) %MON dynstat_wvel_del2            =   1.2262179505819E-07
(PID.TID 0000.0001) %MON dynstat_theta_max            =   1.9996098169261E+01
(PID.TID 0000.0001) %MON dynstat_theta_min            =   6.0011562514880E+00
(PID.TID 0000.0001) %MON dynstat_theta_mean           =   1.1000000051774E+01
(PID.TID 0000.0001) %MON dynstat_theta_sd             =   5.3817981153797E+00
(PID.TID 0000.0001) %MON dynstat_theta_del2           =   7.1601932202840E-06
(PID.TID 0000.0001) %MON dynstat_salt_max             =   1.0000000000000E+01
(PID.TID 0000.0001) %MON dynstat_salt_min             =   1.0000000000000E+01
(PID.TID 0000.0001) %MON dynstat_salt_mean            =   1.0000000000000E+01
(PID.TID 0000.0001) %MON dynstat_salt_sd              =   0.0000000000000E+00
(PID.TID 0000.0001) %MON dynstat_salt_del2            =   0.0000000000000E+00
(PID.TID 0000.0001) %MON advcfl_uvel_max              =   1.3812059313442E-04
(PID.TID 0000.0001) %MON advcfl_vvel_max              =   1.3812580032542E-04
(PID.TID 0000.0001) %MON advcfl_wvel_max              =   2.2238057765688E-04
(PID.TID 0000.0001) %MON advcfl_W_hf_max              =   1.6727781774536E-04
(PID.TID 0000.0001) %MON pe_b_mean                    =  -1.0334161054435E-04
(PID.TID 0000.0001) %MON ke_max                       =   6.6740546323264E-05
(PID.TID 0000.0001) %MON ke_mean                      =   1.9926357202273E-05
(PID.TID 0000.0001) %MON ke_vol                       =   5.6340000000000E+16
(PID.TID 0000.0001) %MON vort_r_min                   =  -4.6929346333092E-08
(PID.TID 0000.0001) %MON vort_r_max                   =   4.6941120424001E-08
(PID.TID 0000.0001) %MON vort_a_mean                  =   1.0000000000000E-04
(PID.TID 0000.0001) %MON vort_a_sd                    =   9.9060094571629E-09
(PID.TID 0000.0001) %MON vort_p_mean                  =   1.0398839738941E-04
(PID.TID 0000.0001) %MON vort_p_sd                    =   3.0798698638798E-05
(PID.TID 0000.0001) %MON surfExpan_theta_mean         =   2.1672964815690E-08
(PID.TID 0000.0001) %MON surfExpan_salt_mean          =   2.1158908333472E-21
(PID.TID 0000.0001) // =======================================================
(PID.TID 0000.0001) // End MONITOR dynamic field statistics
(PID.TID 0000.0001) // =======================================================
(PID.TID 0000.0001) %CHECKPOINT        14 0000000014
 cg2d: Sum(rhs),rhsMax =  -1.06581410364015E-12  1.27480748221867E+00
(PID.TID 0000.0001)                    cg2d_init_res =    2.52511109819528E+00
(PID.TID 0000.0001)                       cg2d_iters =    34
(PID.TID 0000.0001)                         cg2d_res =    6.05359181637727E-14
(PID.TID 0000.0001) // =======================================================
(PID.TID 0000.0001) // Begin MONITOR dynamic field statistics
(PID.TID 0000.0001) // =======================================================
(PID.TID 0000.0001) %MON time_tsnumber                =                    15
(PID.TID 0000.0001) %MON time_secondsf                =   1.8000000000000E+04
(PID.TID 0000.0001) %MON dynstat_eta_max              =   3.3005901489250E-01
(PID.TID 0000.0001) %MON dynstat_eta_min              =  -3.3006529058423E-01
(PID.TID 0000.0001) %MON dynstat_eta_mean             =   8.2090876819311E-17
(PID.TID 0000.0001) %MON dynstat_eta_sd               =   1.4528540840117E-01
(PID.TID 0000.0001) %MON dynstat_eta_del2             =   1.4162762880565E-03
(PID.TID 0000.0001) %MON dynstat_uvel_max             =   9.4005283870349E-03
(PID.TID 0000.0001) %MON dynstat_uvel_min             =  -9.4005283870350E-03
(PID.TID 0000.0001) %MON dynstat_uvel_mean            =  -1.4163343002175E-18
(PID.TID 0000.0001) %MON dynstat_uvel_sd              =   3.5660498905318E-03
(PID.TID 0000.0001) %MON dynstat_uvel_del2            =   3.9098101493516E-05
(PID.TID 0000.0001) %MON dynstat_vvel_max             =   9.4008299722113E-03
(PID.TID 0000.0001) %MON dynstat_vvel_min             =  -9.4008299722113E-03
(PID.TID 0000.0001) %MON dynstat_vvel_mean            =  -1.3455175852067E-18
(PID.TID 0000.0001) %MON dynstat_vvel_sd              =   3.5662991524693E-03
(PID.TID 0000.0001) %MON dynstat_vvel_del2            =   3.9103856367057E-05
(PID.TID 0000.0001) %MON dynstat_wvel_max             =   2.9820964907965E-05
(PID.TID 0000.0001) %MON dynstat_wvel_min             =  -2.9814035801058E-05
(PID.TID 0000.0001) %MON dynstat_wvel_mean            =  -1.3154795581039E-21
(PID.TID 0000.0001) %MON dynstat_wvel_sd              =   8.0582176395428E-06
(PID.TID 0000.0001) %MON dynstat_wvel_del2            =   7.8913185705334E-08
(PID.TID 0000.0001) %MON dynstat_theta_max            =   1.9995285112186E+01
(PID.TID 0000.0001) %MON dynstat_theta_min            =   6.0012744660721E+00
(PID.TID 0000.0001) %MON dynstat_theta_mean           =   1.1000000042791E+01
(PID.TID 0000.0001) %MON dynstat_theta_sd             =   5.3815578037261E+00
(PID.TID 0000.0001) %MON dynstat_theta_del2           =   6.3787627009037E-06
(PID.TID 0000.0001) %MON dynstat_salt_max             =   1.0000000000000E+01
(PID.TID 0000.0001) %MON dynstat_salt_min             =   1.0000000000000E+01
(PID.TID 0000.0001) %MON dynstat_salt_mean            =   1.0000000000000E+01
(PID.TID 0000.0001) %MON dynstat_salt_sd              =   0.0000000000000E+00
(PID.TID 0000.0001) %MON dynstat_salt_del2            =   0.0000000000000E+00
(PID.TID 0000.0001) %MON advcfl_uvel_max              =   1.1280634064442E-04
(PID.TID 0000.0001) %MON advcfl_vvel_max              =   1.1280995966654E-04
(PID.TID 0000.0001) %MON advcfl_wvel_max              =   1.4314063155823E-04
(PID.TID 0000.0001) %MON advcfl_W_hf_max              =   1.0782345880130E-04
(PID.TID 0000.0001) %MON pe_b_mean                    =  -9.8233551019499E-05
(PID.TID 0000.0001) %MON ke_max                       =   4.6975622123775E-05
(PID.TID 0000.0001) %MON ke_mean                      =   1.2451239908602E-05
(PID.TID 0000.0001) %MON ke_vol                       =   5.6340000000000E+16
(PID.TID 0000.0001) %MON vort_r_min                   =  -3.0522926737378E-08
(PID.TID 0000.0001) %MON vort_r_max                   =   3.0515504609260E-08
(PID.TID 0000.0001) %MON vort_a_mean                  =   1.0000000000000E-04
(PID.TID 0000.0001) %MON vort_a_sd                    =   8.0493112308979E-09
(PID.TID 0000.0001) %MON vort_p_mean                  =   1.0398839738941E-04
(PID.TID 0000.0001) %MON vort_p_sd                    =   3.0798697679703E-05
(PID.TID 0000.0001) %MON surfExpan_theta_mean         =   1.1801747272076E-08
(PID.TID 0000.0001) %MON surfExpan_salt_mean          =   0.0000000000000E+00
(PID.TID 0000.0001) // =======================================================
(PID.TID 0000.0001) // End MONITOR dynamic field statistics
(PID.TID 0000.0001) // =======================================================
 cg2d: Sum(rhs),rhsMax =  -7.56728013584507E-13  1.22711777913917E+00
(PID.TID 0000.0001)                    cg2d_init_res =    1.09932897986111E+00
(PID.TID 0000.0001)                       cg2d_iters =    34
(PID.TID 0000.0001)                         cg2d_res =    3.49717631234486E-14
(PID.TID 0000.0001) // =======================================================
(PID.TID 0000.0001) // Begin MONITOR dynamic field statistics
(PID.TID 0000.0001) // =======================================================
(PID.TID 0000.0001) %MON time_tsnumber                =                    16
(PID.TID 0000.0001) %MON time_secondsf                =   1.9200000000000E+04
(PID.TID 0000.0001) %MON dynstat_eta_max              =   3.1782754084759E-01
(PID.TID 0000.0001) %MON dynstat_eta_min              =  -3.1782873181848E-01
(PID.TID 0000.0001) %MON dynstat_eta_mean             =   9.2074902378417E-17
(PID.TID 0000.0001) %MON dynstat_eta_sd               =   1.4071042814973E-01
(PID.TID 0000.0001) %MON dynstat_eta_del2             =   1.3730774960004E-03
(PID.TID 0000.0001) %MON dynstat_uvel_max             =   7.2053001658419E-03
(PID.TID 0000.0001) %MON dynstat_uvel_min             =  -7.2053001658417E-03
(PID.TID 0000.0001) %MON dynstat_uvel_mean            =  -1.2038841551849E-18
(PID.TID 0000.0001) %MON dynstat_uvel_sd              =   2.9052851628910E-03
(PID.TID 0000.0001) %MON dynstat_uvel_del2            =   2.7575780328743E-05
(PID.TID 0000.0001) %MON dynstat_vvel_max             =   7.2055004298246E-03
(PID.TID 0000.0001) %MON dynstat_vvel_min             =  -7.2055004298246E-03
(PID.TID 0000.0001) %MON dynstat_vvel_mean            =  -4.9571700507614E-19
(PID.TID 0000.0001) %MON dynstat_vvel_sd              =   2.9054590003748E-03
(PID.TID 0000.0001) %MON dynstat_vvel_del2            =   2.7579068484003E-05
(PID.TID 0000.0001) %MON dynstat_wvel_max             =   1.1486734002000E-05
(PID.TID 0000.0001) %MON dynstat_wvel_min             =  -1.1483414117878E-05
(PID.TID 0000.0001) %MON dynstat_wvel_mean            =   6.9643035429028E-22
(PID.TID 0000.0001) %MON dynstat_wvel_sd              =   3.4491274314092E-06
(PID.TID 0000.0001) %MON dynstat_wvel_del2            =   3.4672069976142E-08
(PID.TID 0000.0001) %MON dynstat_theta_max            =   1.9994640687529E+01
(PID.TID 0000.0001) %MON dynstat_theta_min            =   6.0013814269656E+00
(PID.TID 0000.0001) %MON dynstat_theta_mean           =   1.1000000039264E+01
(PID.TID 0000.0001) %MON dynstat_theta_sd             =   5.3813175268046E+00
(PID.TID 0000.0001) %MON dynstat_theta_del2           =   6.0131160754723E-06
(PID.TID 0000.0001) %MON dynstat_salt_max             =   1.0000000000000E+01
(PID.TID 0000.0001) %MON dynstat_salt_min             =   1.0000000000000E+01
(PID.TID 0000.0001) %MON dynstat_salt_mean            =   1.0000000000000E+01
(PID.TID 0000.0001) %MON dynstat_salt_sd              =   0.0000000000000E+00
(PID.TID 0000.0001) %MON dynstat_salt_del2            =   0.0000000000000E+00
(PID.TID 0000.0001) %MON advcfl_uvel_max              =   8.6463601990103E-05
(PID.TID 0000.0001) %MON advcfl_vvel_max              =   8.6466005157895E-05
(PID.TID 0000.0001) %MON advcfl_wvel_max              =   5.5136323209601E-05
(PID.TID 0000.0001) %MON advcfl_W_hf_max              =   4.1759781270751E-05
(PID.TID 0000.0001) %MON pe_b_mean                    =  -9.6136465461322E-05
(PID.TID 0000.0001) %MON ke_max                       =   3.3502191909603E-05
(PID.TID 0000.0001) %MON ke_mean                      =   8.2643924676290E-06
(PID.TID 0000.0001) %MON ke_vol                       =   5.6340000000000E+16
(PID.TID 0000.0001) %MON vort_r_min                   =  -1.5658712311428E-08
(PID.TID 0000.0001) %MON vort_r_max                   =   1.5661495552821E-08
(PID.TID 0000.0001) %MON vort_a_mean                  =   1.0000000000000E-04
(PID.TID 0000.0001) %MON vort_a_sd                    =   7.0067749252977E-09
(PID.TID 0000.0001) %MON vort_p_mean                  =   1.0398839738941E-04
(PID.TID 0000.0001) %MON vort_p_sd                    =   3.0798697228334E-05
(PID.TID 0000.0001) %MON surfExpan_theta_mean         =   3.8607371940442E-09
(PID.TID 0000.0001) %MON surfExpan_salt_mean          =  -4.2317816666944E-21
(PID.TID 0000.0001) // =======================================================
(PID.TID 0000.0001) // End MONITOR dynamic field statistics
(PID.TID 0000.0001) // =======================================================
 cg2d: Sum(rhs),rhsMax =  -7.46069872548105E-13  1.25855719792553E+00
(PID.TID 0000.0001)                    cg2d_init_res =    9.48250556908750E-01
(PID.TID 0000.0001)                       cg2d_iters =    33
(PID.TID 0000.0001)                         cg2d_res =    8.89728119796918E-14
(PID.TID 0000.0001) // =======================================================
(PID.TID 0000.0001) // Begin MONITOR dynamic field statistics
(PID.TID 0000.0001) // =======================================================
(PID.TID 0000.0001) %MON time_tsnumber                =                    17
(PID.TID 0000.0001) %MON time_secondsf                =   2.0400000000000E+04
(PID.TID 0000.0001) %MON dynstat_eta_max              =   3.2546166703096E-01
(PID.TID 0000.0001) %MON dynstat_eta_min              =  -3.2546044045459E-01
(PID.TID 0000.0001) %MON dynstat_eta_mean             =   3.9381434149805E-17
(PID.TID 0000.0001) %MON dynstat_eta_sd               =   1.4399100967285E-01
(PID.TID 0000.0001) %MON dynstat_eta_del2             =   1.4080321010927E-03
(PID.TID 0000.0001) %MON dynstat_uvel_max             =   5.8473437764245E-03
(PID.TID 0000.0001) %MON dynstat_uvel_min             =  -5.8473437764245E-03
(PID.TID 0000.0001) %MON dynstat_uvel_mean            =  -8.4980058013053E-19
(PID.TID 0000.0001) %MON dynstat_uvel_sd              =   2.8418731178243E-03
(PID.TID 0000.0001) %MON dynstat_uvel_del2            =   2.9039654080533E-05
(PID.TID 0000.0001) %MON dynstat_vvel_max             =   5.8480168140368E-03
(PID.TID 0000.0001) %MON dynstat_vvel_min             =  -5.8480168140368E-03
(PID.TID 0000.0001) %MON dynstat_vvel_mean            =  -1.8412345902828E-18
(PID.TID 0000.0001) %MON dynstat_vvel_sd              =   2.8419169470771E-03
(PID.TID 0000.0001) %MON dynstat_vvel_del2            =   2.9034238855969E-05
(PID.TID 0000.0001) %MON dynstat_wvel_max             =   9.5282893662596E-06
(PID.TID 0000.0001) %MON dynstat_wvel_min             =  -9.5329237452516E-06
(PID.TID 0000.0001) %MON dynstat_wvel_mean            =  -1.4702418590573E-21
(PID.TID 0000.0001) %MON dynstat_wvel_sd              =   3.0211805679210E-06
(PID.TID 0000.0001) %MON dynstat_wvel_del2            =   3.2253944667568E-08
(PID.TID 0000.0001) %MON dynstat_theta_max            =   1.9994163828018E+01
(PID.TID 0000.0001) %MON dynstat_theta_min            =   6.0014771938213E+00
(PID.TID 0000.0001) %MON dynstat_theta_mean           =   1.1000000039806E+01
(PID.TID 0000.0001) %MON dynstat_theta_sd             =   5.3810772827139E+00
(PID.TID 0000.0001) %MON dynstat_theta_del2           =   6.0386266453535E-06
(PID.TID 0000.0001) %MON dynstat_salt_max             =   1.0000000000000E+01
(PID.TID 0000.0001) %MON dynstat_salt_min             =   1.0000000000000E+01
(PID.TID 0000.0001) %MON dynstat_salt_mean            =   1.0000000000000E+01
(PID.TID 0000.0001) %MON dynstat_salt_sd              =   0.0000000000000E+00
(PID.TID 0000.0001) %MON dynstat_salt_del2            =   0.0000000000000E+00
(PID.TID 0000.0001) %MON advcfl_uvel_max              =   7.0168125317094E-05
(PID.TID 0000.0001) %MON advcfl_vvel_max              =   7.0176201768442E-05
(PID.TID 0000.0001) %MON advcfl_wvel_max              =   4.5758033977208E-05
(PID.TID 0000.0001) %MON advcfl_W_hf_max              =   3.3827985307293E-05
(PID.TID 0000.0001) %MON pe_b_mean                    =  -9.7568927413621E-05
(PID.TID 0000.0001) %MON ke_max                       =   2.9459427868802E-05
(PID.TID 0000.0001) %MON ke_mean                      =   7.9072137816347E-06
(PID.TID 0000.0001) %MON ke_vol                       =   5.6340000000000E+16
(PID.TID 0000.0001) %MON vort_r_min                   =  -2.7684509211511E-08
(PID.TID 0000.0001) %MON vort_r_max                   =   2.7692242550144E-08
(PID.TID 0000.0001) %MON vort_a_mean                  =   1.0000000000000E-04
(PID.TID 0000.0001) %MON vort_a_sd                    =   7.1102211059104E-09
(PID.TID 0000.0001) %MON vort_p_mean                  =   1.0398839738941E-04
(PID.TID 0000.0001) %MON vort_p_sd                    =   3.0798697298811E-05
(PID.TID 0000.0001) %MON surfExpan_theta_mean         =  -2.7794185937445E-09
(PID.TID 0000.0001) %MON surfExpan_salt_mean          =  -3.1738362500208E-21
(PID.TID 0000.0001) // =======================================================
(PID.TID 0000.0001) // End MONITOR dynamic field statistics
(PID.TID 0000.0001) // =======================================================
 cg2d: Sum(rhs),rhsMax =  -1.38555833473220E-13  1.35334741422976E+00
(PID.TID 0000.0001)                    cg2d_init_res =    1.88359014315217E+00
(PID.TID 0000.0001)                       cg2d_iters =    34
(PID.TID 0000.0001)                         cg2d_res =    4.26329917410028E-14
(PID.TID 0000.0001) // =======================================================
(PID.TID 0000.0001) // Begin MONITOR dynamic field statistics
(PID.TID 0000.0001) // =======================================================
(PID.TID 0000.0001) %MON time_tsnumber                =                    18
(PID.TID 0000.0001) %MON time_secondsf                =   2.1600000000000E+04
(PID.TID 0000.0001) %MON dynstat_eta_max              =   3.4904232831908E-01
(PID.TID 0000.0001) %MON dynstat_eta_min              =  -3.4904026811510E-01
(PID.TID 0000.0001) %MON dynstat_eta_mean             =   4.4373446929357E-18
(PID.TID 0000.0001) %MON dynstat_eta_sd               =   1.5375184705661E-01
(PID.TID 0000.0001) %MON dynstat_eta_del2             =   1.5064601739812E-03
(PID.TID 0000.0001) %MON dynstat_uvel_max             =   7.3013908920902E-03
(PID.TID 0000.0001) %MON dynstat_uvel_min             =  -7.3013908920902E-03
(PID.TID 0000.0001) %MON dynstat_uvel_mean            =  -7.7898386511965E-19
(PID.TID 0000.0001) %MON dynstat_uvel_sd              =   3.2417251078685E-03
(PID.TID 0000.0001) %MON dynstat_uvel_del2            =   3.8267369698582E-05
(PID.TID 0000.0001) %MON dynstat_vvel_max             =   7.3018715298145E-03
(PID.TID 0000.0001) %MON dynstat_vvel_min             =  -7.3018715298144E-03
(PID.TID 0000.0001) %MON dynstat_vvel_mean            =  -8.8520893763597E-19
(PID.TID 0000.0001) %MON dynstat_vvel_sd              =   3.2416692513814E-03
(PID.TID 0000.0001) %MON dynstat_vvel_del2            =   3.8260658384987E-05
(PID.TID 0000.0001) %MON dynstat_wvel_max             =   2.1123690850416E-05
(PID.TID 0000.0001) %MON dynstat_wvel_min             =  -2.1123578988487E-05
(PID.TID 0000.0001) %MON dynstat_wvel_mean            =   1.9345287619174E-22
(PID.TID 0000.0001) %MON dynstat_wvel_sd              =   6.3380141106784E-06
(PID.TID 0000.0001) %MON dynstat_wvel_del2            =   6.5212385622000E-08
(PID.TID 0000.0001) %MON dynstat_theta_max            =   1.9993830059792E+01
(PID.TID 0000.0001) %MON dynstat_theta_min            =   6.0015634232099E+00
(PID.TID 0000.0001) %MON dynstat_theta_mean           =   1.1000000043864E+01
(PID.TID 0000.0001) %MON dynstat_theta_sd             =   5.3808370704056E+00
(PID.TID 0000.0001) %MON dynstat_theta_del2           =   6.4007453105894E-06
(PID.TID 0000.0001) %MON dynstat_salt_max             =   1.0000000000000E+01
(PID.TID 0000.0001) %MON dynstat_salt_min             =   1.0000000000000E+01
(PID.TID 0000.0001) %MON dynstat_salt_mean            =   1.0000000000000E+01
(PID.TID 0000.0001) %MON dynstat_salt_sd              =   0.0000000000000E+00
(PID.TID 0000.0001) %MON dynstat_salt_del2            =   0.0000000000000E+00
(PID.TID 0000.0001) %MON advcfl_uvel_max              =   8.7616690705083E-05
(PID.TID 0000.0001) %MON advcfl_vvel_max              =   8.7622458357773E-05
(PID.TID 0000.0001) %MON advcfl_wvel_max              =   1.0139371608200E-04
(PID.TID 0000.0001) %MON advcfl_W_hf_max              =   7.5705367290800E-05
(PID.TID 0000.0001) %MON pe_b_mean                    =  -1.0143406674965E-04
(PID.TID 0000.0001) %MON ke_max                       =   3.3204244714409E-05
(PID.TID 0000.0001) %MON ke_mean                      =   1.0288505668816E-05
(PID.TID 0000.0001) %MON ke_vol                       =   5.6340000000000E+16
(PID.TID 0000.0001) %MON vort_r_min                   =  -4.0743217558100E-08
(PID.TID 0000.0001) %MON vort_r_max                   =   4.0754856710050E-08
(PID.TID 0000.0001) %MON vort_a_mean                  =   1.0000000000000E-04
(PID.TID 0000.0001) %MON vort_a_sd                    =   8.0700942432108E-09
(PID.TID 0000.0001) %MON vort_p_mean                  =   1.0398839738941E-04
(PID.TID 0000.0001) %MON vort_p_sd                    =   3.0798697768138E-05
(PID.TID 0000.0001) %MON surfExpan_theta_mean         =  -8.8003750297536E-09
(PID.TID 0000.0001) %MON surfExpan_salt_mean          =  -2.6448635416840E-21
(PID.TID 0000.0001) // =======================================================
(PID.TID 0000.0001) // End MONITOR dynamic field statistics
(PID.TID 0000.0001) // =======================================================
 cg2d: Sum(rhs),rhsMax =   1.38555833473220E-13  1.48904413874190E+00
(PID.TID 0000.0001)                    cg2d_init_res =    2.36473818877499E+00
(PID.TID 0000.0001)                       cg2d_iters =    34
(PID.TID 0000.0001)                         cg2d_res =    5.22850475301638E-14
(PID.TID 0000.0001) // =======================================================
(PID.TID 0000.0001) // Begin MONITOR dynamic field statistics
(PID.TID 0000.0001) // =======================================================
(PID.TID 0000.0001) %MON time_tsnumber                =                    19
(PID.TID 0000.0001) %MON time_secondsf                =   2.2800000000000E+04
(PID.TID 0000.0001) %MON dynstat_eta_max              =   3.8293971054862E-01
(PID.TID 0000.0001) %MON dynstat_eta_min              =  -3.8293758414706E-01
(PID.TID 0000.0001) %MON dynstat_eta_mean             =  -1.8304046858360E-17
(PID.TID 0000.0001) %MON dynstat_eta_sd               =   1.6800951524121E-01
(PID.TID 0000.0001) %MON dynstat_eta_del2             =   1.6517592243703E-03
(PID.TID 0000.0001) %MON dynstat_uvel_max             =   8.3805676546655E-03
(PID.TID 0000.0001) %MON dynstat_uvel_min             =  -8.3805676546655E-03
(PID.TID 0000.0001) %MON dynstat_uvel_mean            =   4.9571700507614E-19
(PID.TID 0000.0001) %MON dynstat_uvel_sd              =   3.7218972127696E-03
(PID.TID 0000.0001) %MON dynstat_uvel_del2            =   4.6885739399828E-05
(PID.TID 0000.0001) %MON dynstat_vvel_max             =   8.3808262569121E-03
(PID.TID 0000.0001) %MON dynstat_vvel_min             =  -8.3808262569122E-03
(PID.TID 0000.0001) %MON dynstat_vvel_mean            =  -1.1153632614213E-18
(PID.TID 0000.0001) %MON dynstat_vvel_sd              =   3.7217963014142E-03
(PID.TID 0000.0001) %MON dynstat_vvel_del2            =   4.6879348390036E-05
(PID.TID 0000.0001) %MON dynstat_wvel_max             =   3.0324637398565E-05
(PID.TID 0000.0001) %MON dynstat_wvel_min             =  -3.0324525514969E-05
(PID.TID 0000.0001) %MON dynstat_wvel_mean            =  -2.3214345143009E-22
(PID.TID 0000.0001) %MON dynstat_wvel_sd              =   8.7440871281440E-06
(PID.TID 0000.0001) %MON dynstat_wvel_del2            =   8.7681571538870E-08
(PID.TID 0000.0001) %MON dynstat_theta_max            =   1.9993598238833E+01
(PID.TID 0000.0001) %MON dynstat_theta_min            =   6.0016428320790E+00
(PID.TID 0000.0001) %MON dynstat_theta_mean           =   1.1000000051312E+01
(PID.TID 0000.0001) %MON dynstat_theta_sd             =   5.3805968891945E+00
(PID.TID 0000.0001) %MON dynstat_theta_del2           =   7.0200107455410E-06
(PID.TID 0000.0001) %MON dynstat_salt_max             =   1.0000000000000E+01
(PID.TID 0000.0001) %MON dynstat_salt_min             =   1.0000000000000E+01
(PID.TID 0000.0001) %MON dynstat_salt_mean            =   1.0000000000000E+01
(PID.TID 0000.0001) %MON dynstat_salt_sd              =   0.0000000000000E+00
(PID.TID 0000.0001) %MON dynstat_salt_del2            =   0.0000000000000E+00
(PID.TID 0000.0001) %MON advcfl_uvel_max              =   1.0056681185599E-04
(PID.TID 0000.0001) %MON advcfl_vvel_max              =   1.0056991508295E-04
(PID.TID 0000.0001) %MON advcfl_wvel_max              =   1.4555825951311E-04
(PID.TID 0000.0001) %MON advcfl_W_hf_max              =   1.0887408422318E-04
(PID.TID 0000.0001) %MON pe_b_mean                    =  -1.0589916337322E-04
(PID.TID 0000.0001) %MON ke_max                       =   3.9059332212741E-05
(PID.TID 0000.0001) %MON ke_mean                      =   1.3562020299004E-05
(PID.TID 0000.0001) %MON ke_vol                       =   5.6340000000000E+16
(PID.TID 0000.0001) %MON vort_r_min                   =  -5.3188686413246E-08
(PID.TID 0000.0001) %MON vort_r_max                   =   5.3201395087629E-08
(PID.TID 0000.0001) %MON vort_a_mean                  =   1.0000000000000E-04
(PID.TID 0000.0001) %MON vort_a_sd                    =   9.3298795669097E-09
(PID.TID 0000.0001) %MON vort_p_mean                  =   1.0398839738941E-04
(PID.TID 0000.0001) %MON vort_p_sd                    =   3.0798698443457E-05
(PID.TID 0000.0001) %MON surfExpan_theta_mean         =  -1.4130228805801E-08
(PID.TID 0000.0001) %MON surfExpan_salt_mean          =  -1.1108426875073E-20
(PID.TID 0000.0001) // =======================================================
(PID.TID 0000.0001) // End MONITOR dynamic field statistics
(PID.TID 0000.0001) // =======================================================
 cg2d: Sum(rhs),rhsMax =   2.09610107049230E-13  1.64050024714699E+00
(PID.TID 0000.0001)                    cg2d_init_res =    2.38500013679273E+00
(PID.TID 0000.0001)                       cg2d_iters =    34
(PID.TID 0000.0001)                         cg2d_res =    5.48386082311996E-14
(PID.TID 0000.0001) // =======================================================
(PID.TID 0000.0001) // Begin MONITOR dynamic field statistics
(PID.TID 0000.0001) // =======================================================
(PID.TID 0000.0001) %MON time_tsnumber                =                    20
(PID.TID 0000.0001) %MON time_secondsf                =   2.4000000000000E+04
(PID.TID 0000.0001) %MON dynstat_eta_max              =   4.2082262789268E-01
(PID.TID 0000.0001) %MON dynstat_eta_min              =  -4.2082099181041E-01
(PID.TID 0000.0001) %MON dynstat_eta_mean             =  -6.1568157614483E-17
(PID.TID 0000.0001) %MON dynstat_eta_sd               =   1.8428275687056E-01
(PID.TID 0000.0001) %MON dynstat_eta_del2             =   1.8179109252132E-03
(PID.TID 0000.0001) %MON dynstat_uvel_max             =   8.8960330786272E-03
(PID.TID 0000.0001) %MON dynstat_uvel_min             =  -8.8960330786272E-03
(PID.TID 0000.0001) %MON dynstat_uvel_mean            =   1.0622507251632E-18
(PID.TID 0000.0001) %MON dynstat_uvel_sd              =   4.0596150564920E-03
(PID.TID 0000.0001) %MON dynstat_uvel_del2            =   5.2597582769877E-05
(PID.TID 0000.0001) %MON dynstat_vvel_max             =   8.8962335172045E-03
(PID.TID 0000.0001) %MON dynstat_vvel_min             =  -8.8962335172045E-03
(PID.TID 0000.0001) %MON dynstat_vvel_mean            =  -7.7898386511965E-19
(PID.TID 0000.0001) %MON dynstat_vvel_sd              =   4.0595022722979E-03
(PID.TID 0000.0001) %MON dynstat_vvel_del2            =   5.2591006646126E-05
(PID.TID 0000.0001) %MON dynstat_wvel_max             =   3.3833926367717E-05
(PID.TID 0000.0001) %MON dynstat_wvel_min             =  -3.3833655287060E-05
(PID.TID 0000.0001) %MON dynstat_wvel_mean            =  -5.1265012190812E-22
(PID.TID 0000.0001) %MON dynstat_wvel_sd              =   9.7203686948420E-06
(PID.TID 0000.0001) %MON dynstat_wvel_del2            =   9.6256324700929E-08
(PID.TID 0000.0001) %MON dynstat_theta_max            =   1.9993418502846E+01
(PID.TID 0000.0001) %MON dynstat_theta_min            =   6.0017187551509E+00
(PID.TID 0000.0001) %MON dynstat_theta_mean           =   1.1000000061709E+01
(PID.TID 0000.0001) %MON dynstat_theta_sd             =   5.3803567378360E+00
(PID.TID 0000.0001) %MON dynstat_theta_del2           =   7.7986466507399E-06
(PID.TID 0000.0001) %MON dynstat_salt_max             =   1.0000000000000E+01
(PID.TID 0000.0001) %MON dynstat_salt_min             =   1.0000000000000E+01
(PID.TID 0000.0001) %MON dynstat_salt_mean            =   1.0000000000000E+01
(PID.TID 0000.0001) %MON dynstat_salt_sd              =   0.0000000000000E+00
(PID.TID 0000.0001) %MON dynstat_salt_del2            =   0.0000000000000E+00
(PID.TID 0000.0001) %MON advcfl_uvel_max              =   1.0675239694353E-04
(PID.TID 0000.0001) %MON advcfl_vvel_max              =   1.0675480220645E-04
(PID.TID 0000.0001) %MON advcfl_wvel_max              =   1.6240284656504E-04
(PID.TID 0000.0001) %MON advcfl_W_hf_max              =   1.2155092815741E-04
(PID.TID 0000.0001) %MON pe_b_mean                    =  -1.0940229833225E-04
(PID.TID 0000.0001) %MON ke_max                       =   4.2746458132526E-05
(PID.TID 0000.0001) %MON ke_mean                      =   1.6134854686810E-05
(PID.TID 0000.0001) %MON ke_vol                       =   5.6340000000000E+16
(PID.TID 0000.0001) %MON vort_r_min                   =  -6.2212013505277E-08
(PID.TID 0000.0001) %MON vort_r_max                   =   6.2224833878721E-08
(PID.TID 0000.0001) %MON vort_a_mean                  =   1.0000000000000E-04
(PID.TID 0000.0001) %MON vort_a_sd                    =   1.0516558694970E-08
(PID.TID 0000.0001) %MON vort_p_mean                  =   1.0398839738941E-04
(PID.TID 0000.0001) %MON vort_p_sd                    =   3.0798699133634E-05
(PID.TID 0000.0001) %MON surfExpan_theta_mean         =  -1.7894238059546E-08
(PID.TID 0000.0001) %MON surfExpan_salt_mean          =   8.5958065104730E-21
(PID.TID 0000.0001) // =======================================================
(PID.TID 0000.0001) // End MONITOR dynamic field statistics
(PID.TID 0000.0001) // =======================================================
 cg2d: Sum(rhs),rhsMax =   2.73558953267639E-13  1.78373920893239E+00
(PID.TID 0000.0001)                    cg2d_init_res =    2.09308995363982E+00
(PID.TID 0000.0001)                       cg2d_iters =    34
(PID.TID 0000.0001)                         cg2d_res =    5.20196981801169E-14
(PID.TID 0000.0001) // =======================================================
(PID.TID 0000.0001) // Begin MONITOR dynamic field statistics
(PID.TID 0000.0001) // =======================================================
(PID.TID 0000.0001) %MON time_tsnumber                =                    21
(PID.TID 0000.0001) %MON time_secondsf                =   2.5200000000000E+04
(PID.TID 0000.0001) %MON dynstat_eta_max              =   4.5666318729965E-01
(PID.TID 0000.0001) %MON dynstat_eta_min              =  -4.5666227088186E-01
(PID.TID 0000.0001) %MON dynstat_eta_mean             =  -6.7669506567270E-17
(PID.TID 0000.0001) %MON dynstat_eta_sd               =   1.9996928885094E-01
(PID.TID 0000.0001) %MON dynstat_eta_del2             =   1.9780197591608E-03
(PID.TID 0000.0001) %MON dynstat_uvel_max             =   8.7940979727010E-03
(PID.TID 0000.0001) %MON dynstat_uvel_min             =  -8.7940979727010E-03
(PID.TID 0000.0001) %MON dynstat_uvel_mean            =  -1.4871510152284E-18
(PID.TID 0000.0001) %MON dynstat_uvel_sd              =   4.2019524625730E-03
(PID.TID 0000.0001) %MON dynstat_uvel_del2            =   5.4879842454295E-05
(PID.TID 0000.0001) %MON dynstat_vvel_max             =   8.7942544525401E-03
(PID.TID 0000.0001) %MON dynstat_vvel_min             =  -8.7942544525401E-03
(PID.TID 0000.0001) %MON dynstat_vvel_mean            =  -5.6653372008702E-19
(PID.TID 0000.0001) %MON dynstat_vvel_sd              =   4.2018455605596E-03
(PID.TID 0000.0001) %MON dynstat_vvel_del2            =   5.4873176550881E-05
(PID.TID 0000.0001) %MON dynstat_wvel_max             =   3.1889151115604E-05
(PID.TID 0000.0001) %MON dynstat_wvel_min             =  -3.1889192908749E-05
(PID.TID 0000.0001) %MON dynstat_wvel_mean            =   3.5788782095473E-22
(PID.TID 0000.0001) %MON dynstat_wvel_sd              =   9.2890002832307E-06
(PID.TID 0000.0001) %MON dynstat_wvel_del2            =   9.1418666700496E-08
(PID.TID 0000.0001) %MON dynstat_theta_max            =   1.9993240289427E+01
(PID.TID 0000.0001) %MON dynstat_theta_min            =   6.0017945659093E+00
(PID.TID 0000.0001) %MON dynstat_theta_mean           =   1.1000000073801E+01
(PID.TID 0000.0001) %MON dynstat_theta_sd             =   5.3801166139500E+00
(PID.TID 0000.0001) %MON dynstat_theta_del2           =   8.5982440630308E-06
(PID.TID 0000.0001) %MON dynstat_salt_max             =   1.0000000000000E+01
(PID.TID 0000.0001) %MON dynstat_salt_min             =   1.0000000000000E+01
(PID.TID 0000.0001) %MON dynstat_salt_mean            =   1.0000000000000E+01
(PID.TID 0000.0001) %MON dynstat_salt_sd              =   0.0000000000000E+00
(PID.TID 0000.0001) %MON dynstat_salt_del2            =   0.0000000000000E+00
(PID.TID 0000.0001) %MON advcfl_uvel_max              =   1.0552917567241E-04
(PID.TID 0000.0001) %MON advcfl_vvel_max              =   1.0553105343048E-04
(PID.TID 0000.0001) %MON advcfl_wvel_max              =   1.5306812596200E-04
(PID.TID 0000.0001) %MON advcfl_W_hf_max              =   1.1459038431336E-04
(PID.TID 0000.0001) %MON pe_b_mean                    =  -1.1126680489062E-04
(PID.TID 0000.0001) %MON ke_max                       =   4.7241679669845E-05
(PID.TID 0000.0001) %MON ke_mean                      =   1.7286164265056E-05
(PID.TID 0000.0001) %MON ke_vol                       =   5.6340000000000E+16
(PID.TID 0000.0001) %MON vort_r_min                   =  -6.5660117945096E-08
(PID.TID 0000.0001) %MON vort_r_max                   =   6.5672555357257E-08
(PID.TID 0000.0001) %MON vort_a_mean                  =   1.0000000000000E-04
(PID.TID 0000.0001) %MON vort_a_sd                    =   1.1458696641068E-08
(PID.TID 0000.0001) %MON vort_p_mean                  =   1.0398839738941E-04
(PID.TID 0000.0001) %MON vort_p_sd                    =   3.0798699699311E-05
(PID.TID 0000.0001) %MON surfExpan_theta_mean         =  -1.8978726292359E-08
(PID.TID 0000.0001) %MON surfExpan_salt_mean          =   1.5869181250104E-20
(PID.TID 0000.0001) // =======================================================
(PID.TID 0000.0001) // End MONITOR dynamic field statistics
(PID.TID 0000.0001) // =======================================================
 cg2d: Sum(rhs),rhsMax =   2.34479102800833E-13  1.90459712619300E+00
(PID.TID 0000.0001)                    cg2d_init_res =    1.62288671662692E+00
(PID.TID 0000.0001)                       cg2d_iters =    34
(PID.TID 0000.0001)                         cg2d_res =    4.39875996872572E-14
(PID.TID 0000.0001) // =======================================================
(PID.TID 0000.0001) // Begin MONITOR dynamic field statistics
(PID.TID 0000.0001) // =======================================================
(PID.TID 0000.0001) %MON time_tsnumber                =                    22
(PID.TID 0000.0001) %MON time_secondsf                =   2.6400000000000E+04
(PID.TID 0000.0001) %MON dynstat_eta_max              =   4.8684303287109E-01
(PID.TID 0000.0001) %MON dynstat_eta_min              =  -4.8684390231724E-01
(PID.TID 0000.0001) %MON dynstat_eta_mean             =  -5.1029463968761E-17
(PID.TID 0000.0001) %MON dynstat_eta_sd               =   2.1280444784716E-01
(PID.TID 0000.0001) %MON dynstat_eta_del2             =   2.1104450995230E-03
(PID.TID 0000.0001) %MON dynstat_uvel_max             =   8.1549641031882E-03
(PID.TID 0000.0001) %MON dynstat_uvel_min             =  -8.1549641031882E-03
(PID.TID 0000.0001) %MON dynstat_uvel_mean            =   8.4980058013053E-19
(PID.TID 0000.0001) %MON dynstat_uvel_sd              =   4.1911634360114E-03
(PID.TID 0000.0001) %MON dynstat_uvel_del2            =   5.4270854337657E-05
(PID.TID 0000.0001) %MON dynstat_vvel_max             =   8.1538115055483E-03
(PID.TID 0000.0001) %MON dynstat_vvel_min             =  -8.1538115055483E-03
(PID.TID 0000.0001) %MON dynstat_vvel_mean            =  -2.3900641316171E-18
(PID.TID 0000.0001) %MON dynstat_vvel_sd              =   4.1910735904954E-03
(PID.TID 0000.0001) %MON dynstat_vvel_del2            =   5.4263934453483E-05
(PID.TID 0000.0001) %MON dynstat_wvel_max             =   2.5565801204073E-05
(PID.TID 0000.0001) %MON dynstat_wvel_min             =  -2.5566799917952E-05
(PID.TID 0000.0001) %MON dynstat_wvel_mean            =   2.3214345143009E-22
(PID.TID 0000.0001) %MON dynstat_wvel_sd              =   7.7178923054548E-06
(PID.TID 0000.0001) %MON dynstat_wvel_del2            =   7.5640532052065E-08
(PID.TID 0000.0001) %MON dynstat_theta_max            =   1.9993027696079E+01
(PID.TID 0000.0001) %MON dynstat_theta_min            =   6.0018726594442E+00
(PID.TID 0000.0001) %MON dynstat_theta_mean           =   1.1000000085578E+01
(PID.TID 0000.0001) %MON dynstat_theta_sd             =   5.3798765142040E+00
(PID.TID 0000.0001) %MON dynstat_theta_del2           =   9.3042594280891E-06
(PID.TID 0000.0001) %MON dynstat_salt_max             =   1.0000000000000E+01
(PID.TID 0000.0001) %MON dynstat_salt_min             =   1.0000000000000E+01
(PID.TID 0000.0001) %MON dynstat_salt_mean            =   1.0000000000000E+01
(PID.TID 0000.0001) %MON dynstat_salt_sd              =   0.0000000000000E+00
(PID.TID 0000.0001) %MON dynstat_salt_del2            =   0.0000000000000E+00
(PID.TID 0000.0001) %MON advcfl_uvel_max              =   9.7859569238259E-05
(PID.TID 0000.0001) %MON advcfl_vvel_max              =   9.7845738066579E-05
(PID.TID 0000.0001) %MON advcfl_wvel_max              =   1.2272063960617E-04
(PID.TID 0000.0001) %MON advcfl_W_hf_max              =   9.1865337846526E-05
(PID.TID 0000.0001) %MON pe_b_mean                    =  -1.1172615203626E-04
(PID.TID 0000.0001) %MON ke_max                       =   4.8395497645169E-05
(PID.TID 0000.0001) %MON ke_mean                      =   1.7197578409328E-05
(PID.TID 0000.0001) %MON ke_vol                       =   5.6340000000000E+16
(PID.TID 0000.0001) %MON vort_r_min                   =  -6.4051540982210E-08
(PID.TID 0000.0001) %MON vort_r_max                   =   6.4063174351193E-08
(PID.TID 0000.0001) %MON vort_a_mean                  =   1.0000000000000E-04
(PID.TID 0000.0001) %MON vort_a_sd                    =   1.2099738743129E-08
(PID.TID 0000.0001) %MON vort_p_mean                  =   1.0398839738941E-04
(PID.TID 0000.0001) %MON vort_p_sd                    =   3.0798700070716E-05
(PID.TID 0000.0001) %MON surfExpan_theta_mean         =  -1.6760889124791E-08
(PID.TID 0000.0001) %MON surfExpan_salt_mean          =  -7.9345906250520E-21
(PID.TID 0000.0001) // =======================================================
(PID.TID 0000.0001) // End MONITOR dynamic field statistics
(PID.TID 0000.0001) // =======================================================
 cg2d: Sum(rhs),rhsMax =   6.57252030578093E-14  1.98206267388729E+00
(PID.TID 0000.0001)                    cg2d_init_res =    1.09330238462028E+00
(PID.TID 0000.0001)                       cg2d_iters =    33
(PID.TID 0000.0001)                         cg2d_res =    9.89645737489896E-14
(PID.TID 0000.0001) // =======================================================
(PID.TID 0000.0001) // Begin MONITOR dynamic field statistics
(PID.TID 0000.0001) // =======================================================
(PID.TID 0000.0001) %MON time_tsnumber                =                    23
(PID.TID 0000.0001) %MON time_secondsf                =   2.7600000000000E+04
(PID.TID 0000.0001) %MON dynstat_eta_max              =   5.0612215126502E-01
(PID.TID 0000.0001) %MON dynstat_eta_min              =  -5.0612595644060E-01
(PID.TID 0000.0001) %MON dynstat_eta_mean             =  -9.7621583244586E-17
(PID.TID 0000.0001) %MON dynstat_eta_sd               =   2.2120728819490E-01
(PID.TID 0000.0001) %MON dynstat_eta_del2             =   2.1992511072927E-03
(PID.TID 0000.0001) %MON dynstat_uvel_max             =   8.8634425848598E-03
(PID.TID 0000.0001) %MON dynstat_uvel_min             =  -8.8634425848598E-03
(PID.TID 0000.0001) %MON dynstat_uvel_mean            =   5.6653372008702E-19
(PID.TID 0000.0001) %MON dynstat_uvel_sd              =   4.1100766454381E-03
(PID.TID 0000.0001) %MON dynstat_uvel_del2            =   5.1928823392603E-05
(PID.TID 0000.0001) %MON dynstat_vvel_max             =   8.8638474751741E-03
(PID.TID 0000.0001) %MON dynstat_vvel_min             =  -8.8638474751739E-03
(PID.TID 0000.0001) %MON dynstat_vvel_mean            =  -1.2326534456581E-18
(PID.TID 0000.0001) %MON dynstat_vvel_sd              =   4.1100130668546E-03
(PID.TID 0000.0001) %MON dynstat_vvel_del2            =   5.1921553754711E-05
(PID.TID 0000.0001) %MON dynstat_wvel_max             =   1.6346995771150E-05
(PID.TID 0000.0001) %MON dynstat_wvel_min             =  -1.6348950865743E-05
(PID.TID 0000.0001) %MON dynstat_wvel_mean            =   3.8690575238349E-22
(PID.TID 0000.0001) %MON dynstat_wvel_sd              =   5.4692304738698E-06
(PID.TID 0000.0001) %MON dynstat_wvel_del2            =   5.2532698794810E-08
(PID.TID 0000.0001) %MON dynstat_theta_max            =   1.9992740917020E+01
(PID.TID 0000.0001) %MON dynstat_theta_min            =   6.0019556928059E+00
(PID.TID 0000.0001) %MON dynstat_theta_mean           =   1.1000000094836E+01
(PID.TID 0000.0001) %MON dynstat_theta_sd             =   5.3796364351525E+00
(PID.TID 0000.0001) %MON dynstat_theta_del2           =   9.8259294127091E-06
(PID.TID 0000.0001) %MON dynstat_salt_max             =   1.0000000000000E+01
(PID.TID 0000.0001) %MON dynstat_salt_min             =   1.0000000000000E+01
(PID.TID 0000.0001) %MON dynstat_salt_mean            =   1.0000000000000E+01
(PID.TID 0000.0001) %MON dynstat_salt_sd              =   0.0000000000000E+00
(PID.TID 0000.0001) %MON dynstat_salt_del2            =   0.0000000000000E+00
(PID.TID 0000.0001) %MON advcfl_uvel_max              =   1.0636131101832E-04
(PID.TID 0000.0001) %MON advcfl_vvel_max              =   1.0636616970209E-04
(PID.TID 0000.0001) %MON advcfl_wvel_max              =   7.8474964155566E-05
(PID.TID 0000.0001) %MON advcfl_W_hf_max              =   5.8717993192321E-05
(PID.TID 0000.0001) %MON pe_b_mean                    =  -1.1150356533758E-04
(PID.TID 0000.0001) %MON ke_max                       =   4.7575752928514E-05
(PID.TID 0000.0001) %MON ke_mean                      =   1.6538668346207E-05
(PID.TID 0000.0001) %MON ke_vol                       =   5.6340000000000E+16
(PID.TID 0000.0001) %MON vort_r_min                   =  -5.8415629109630E-08
(PID.TID 0000.0001) %MON vort_r_max                   =   5.8426280933446E-08
(PID.TID 0000.0001) %MON vort_a_mean                  =   1.0000000000000E-04
(PID.TID 0000.0001) %MON vort_a_sd                    =   1.2441004654124E-08
(PID.TID 0000.0001) %MON vort_p_mean                  =   1.0398839738941E-04
(PID.TID 0000.0001) %MON vort_p_sd                    =   3.0798700237815E-05
(PID.TID 0000.0001) %MON surfExpan_theta_mean         =  -1.1558012129061E-08
(PID.TID 0000.0001) %MON surfExpan_salt_mean          =   1.2695345000083E-20
(PID.TID 0000.0001) // =======================================================
(PID.TID 0000.0001) // End MONITOR dynamic field statistics
(PID.TID 0000.0001) // =======================================================
 cg2d: Sum(rhs),rhsMax =   4.65405491922866E-13  2.01020086634278E+00
(PID.TID 0000.0001)                    cg2d_init_res =    6.25776215508881E-01
(PID.TID 0000.0001)                       cg2d_iters =    33
(PID.TID 0000.0001)                         cg2d_res =    6.72232739833952E-14
(PID.TID 0000.0001) // =======================================================
(PID.TID 0000.0001) // Begin MONITOR dynamic field statistics
(PID.TID 0000.0001) // =======================================================
(PID.TID 0000.0001) %MON time_tsnumber                =                    24
(PID.TID 0000.0001) %MON time_secondsf                =   2.8800000000000E+04
(PID.TID 0000.0001) %MON dynstat_eta_max              =   5.1301151116077E-01
(PID.TID 0000.0001) %MON dynstat_eta_min              =  -5.1301897984980E-01
(PID.TID 0000.0001) %MON dynstat_eta_mean             =  -8.4309549165779E-17
(PID.TID 0000.0001) %MON dynstat_eta_sd               =   2.2445021759639E-01
(PID.TID 0000.0001) %MON dynstat_eta_del2             =   2.2368522974043E-03
(PID.TID 0000.0001) %MON dynstat_uvel_max             =   9.3581529049271E-03
(PID.TID 0000.0001) %MON dynstat_uvel_min             =  -9.3581529049271E-03
(PID.TID 0000.0001) %MON dynstat_uvel_mean            =   3.5408357505439E-20
(PID.TID 0000.0001) %MON dynstat_uvel_sd              =   4.0344922630108E-03
(PID.TID 0000.0001) %MON dynstat_uvel_del2            =   4.9745904665131E-05
(PID.TID 0000.0001) %MON dynstat_vvel_max             =   9.3585721786392E-03
(PID.TID 0000.0001) %MON dynstat_vvel_min             =  -9.3585721786392E-03
(PID.TID 0000.0001) %MON dynstat_vvel_mean            =  -1.0932330379804E-18
(PID.TID 0000.0001) %MON dynstat_vvel_sd              =   4.0344629795858E-03
(PID.TID 0000.0001) %MON dynstat_vvel_del2            =   4.9739134338789E-05
(PID.TID 0000.0001) %MON dynstat_wvel_max             =   1.0876926508916E-05
(PID.TID 0000.0001) %MON dynstat_wvel_min             =  -1.0874766677010E-05
(PID.TID 0000.0001) %MON dynstat_wvel_mean            =   7.7381150476698E-22
(PID.TID 0000.0001) %MON dynstat_wvel_sd              =   3.3046752266724E-06
(PID.TID 0000.0001) %MON dynstat_wvel_del2            =   2.6923143878823E-08
(PID.TID 0000.0001) %MON dynstat_theta_max            =   1.9992356970989E+01
(PID.TID 0000.0001) %MON dynstat_theta_min            =   6.0020452001777E+00
(PID.TID 0000.0001) %MON dynstat_theta_mean           =   1.1000000099898E+01
(PID.TID 0000.0001) %MON dynstat_theta_sd             =   5.3793963742720E+00
(PID.TID 0000.0001) %MON dynstat_theta_del2           =   1.0111315458130E-05
(PID.TID 0000.0001) %MON dynstat_salt_max             =   1.0000000000000E+01
(PID.TID 0000.0001) %MON dynstat_salt_min             =   1.0000000000000E+01
(PID.TID 0000.0001) %MON dynstat_salt_mean            =   1.0000000000000E+01
(PID.TID 0000.0001) %MON dynstat_salt_sd              =   0.0000000000000E+00
(PID.TID 0000.0001) %MON dynstat_salt_del2            =   0.0000000000000E+00
(PID.TID 0000.0001) %MON advcfl_uvel_max              =   1.1229783485913E-04
(PID.TID 0000.0001) %MON advcfl_vvel_max              =   1.1230286614367E-04
(PID.TID 0000.0001) %MON advcfl_wvel_max              =   5.2209247242799E-05
(PID.TID 0000.0001) %MON advcfl_W_hf_max              =   3.9146775072317E-05
(PID.TID 0000.0001) %MON pe_b_mean                    =  -1.1127567000678E-04
(PID.TID 0000.0001) %MON ke_max                       =   4.6472355426235E-05
(PID.TID 0000.0001) %MON ke_mean                      =   1.5936099641138E-05
(PID.TID 0000.0001) %MON ke_vol                       =   5.6340000000000E+16
(PID.TID 0000.0001) %MON vort_r_min                   =  -5.0100363116988E-08
(PID.TID 0000.0001) %MON vort_r_max                   =   5.0110166851928E-08
(PID.TID 0000.0001) %MON vort_a_mean                  =   1.0000000000000E-04
(PID.TID 0000.0001) %MON vort_a_sd                    =   1.2510690367238E-08
(PID.TID 0000.0001) %MON vort_p_mean                  =   1.0398839738941E-04
(PID.TID 0000.0001) %MON vort_p_sd                    =   3.0798700226381E-05
(PID.TID 0000.0001) %MON surfExpan_theta_mean         =  -4.5838986873733E-09
(PID.TID 0000.0001) %MON surfExpan_salt_mean          =  -7.4056179167152E-21
(PID.TID 0000.0001) // =======================================================
(PID.TID 0000.0001) // End MONITOR dynamic field statistics
(PID.TID 0000.0001) // =======================================================
 cg2d: Sum(rhs),rhsMax =   2.45137243837235E-13  1.99087265561611E+00
(PID.TID 0000.0001)                    cg2d_init_res =    5.15333883890285E-01
(PID.TID 0000.0001)                       cg2d_iters =    32
(PID.TID 0000.0001)                         cg2d_res =    9.37088534465740E-14
(PID.TID 0000.0001) // =======================================================
(PID.TID 0000.0001) // Begin MONITOR dynamic field statistics
(PID.TID 0000.0001) // =======================================================
(PID.TID 0000.0001) %MON time_tsnumber                =                    25
(PID.TID 0000.0001) %MON time_secondsf                =   3.0000000000000E+04
(PID.TID 0000.0001) %MON dynstat_eta_max              =   5.0798511556510E-01
(PID.TID 0000.0001) %MON dynstat_eta_min              =  -5.0799613314744E-01
(PID.TID 0000.0001) %MON dynstat_eta_mean             =   8.1813542776003E-18
(PID.TID 0000.0001) %MON dynstat_eta_sd               =   2.2266239337114E-01
(PID.TID 0000.0001) %MON dynstat_eta_del2             =   2.2240016979279E-03
(PID.TID 0000.0001) %MON dynstat_uvel_max             =   9.5943554438523E-03
(PID.TID 0000.0001) %MON dynstat_uvel_min             =  -9.5943554438523E-03
(PID.TID 0000.0001) %MON dynstat_uvel_mean            =  -4.6030864757070E-19
(PID.TID 0000.0001) %MON dynstat_uvel_sd              =   3.9954086476448E-03
(PID.TID 0000.0001) %MON dynstat_uvel_del2            =   4.8626877833740E-05
(PID.TID 0000.0001) %MON dynstat_vvel_max             =   9.5951010535793E-03
(PID.TID 0000.0001) %MON dynstat_vvel_min             =  -9.5951010535792E-03
(PID.TID 0000.0001) %MON dynstat_vvel_mean            =  -1.0888069932922E-18
(PID.TID 0000.0001) %MON dynstat_vvel_sd              =   3.9954182442436E-03
(PID.TID 0000.0001) %MON dynstat_vvel_del2            =   4.8622311826157E-05
(PID.TID 0000.0001) %MON dynstat_wvel_max             =   7.8341652344661E-06
(PID.TID 0000.0001) %MON dynstat_wvel_min             =  -7.8330765833108E-06
(PID.TID 0000.0001) %MON dynstat_wvel_mean            =   2.3214345143009E-22
(PID.TID 0000.0001) %MON dynstat_wvel_sd              =   2.7794427334706E-06
(PID.TID 0000.0001) %MON dynstat_wvel_del2            =   1.8025430908372E-08
(PID.TID 0000.0001) %MON dynstat_theta_max            =   1.9991873748167E+01
(PID.TID 0000.0001) %MON dynstat_theta_min            =   6.0021413227996E+00
(PID.TID 0000.0001) %MON dynstat_theta_mean           =   1.1000000100138E+01
(PID.TID 0000.0001) %MON dynstat_theta_sd             =   5.3791563306792E+00
(PID.TID 0000.0001) %MON dynstat_theta_del2           =   1.0149629095396E-05
(PID.TID 0000.0001) %MON dynstat_salt_max             =   1.0000000000000E+01
(PID.TID 0000.0001) %MON dynstat_salt_min             =   1.0000000000000E+01
(PID.TID 0000.0001) %MON dynstat_salt_mean            =   1.0000000000000E+01
(PID.TID 0000.0001) %MON dynstat_salt_sd              =   0.0000000000000E+00
(PID.TID 0000.0001) %MON dynstat_salt_del2            =   0.0000000000000E+00
(PID.TID 0000.0001) %MON advcfl_uvel_max              =   1.1513226532623E-04
(PID.TID 0000.0001) %MON advcfl_vvel_max              =   1.1514121264295E-04
(PID.TID 0000.0001) %MON advcfl_wvel_max              =   3.7603993125437E-05
(PID.TID 0000.0001) %MON advcfl_W_hf_max              =   2.8217148851898E-05
(PID.TID 0000.0001) %MON pe_b_mean                    =  -1.1132316159210E-04
(PID.TID 0000.0001) %MON ke_max                       =   4.6220231061002E-05
(PID.TID 0000.0001) %MON ke_mean                      =   1.5628988388350E-05
(PID.TID 0000.0001) %MON ke_vol                       =   5.6340000000000E+16
(PID.TID 0000.0001) %MON vort_r_min                   =  -4.4373346032484E-08
(PID.TID 0000.0001) %MON vort_r_max                   =   4.4379834345477E-08
(PID.TID 0000.0001) %MON vort_a_mean                  =   1.0000000000000E-04
(PID.TID 0000.0001) %MON vort_a_sd                    =   1.2347470365877E-08
(PID.TID 0000.0001) %MON vort_p_mean                  =   1.0398839738941E-04
(PID.TID 0000.0001) %MON vort_p_sd                    =   3.0798700074496E-05
(PID.TID 0000.0001) %MON surfExpan_theta_mean         =   2.5058155870984E-09
(PID.TID 0000.0001) %MON surfExpan_salt_mean          =  -8.4635633333888E-21
(PID.TID 0000.0001) // =======================================================
(PID.TID 0000.0001) // End MONITOR dynamic field statistics
(PID.TID 0000.0001) // =======================================================
 cg2d: Sum(rhs),rhsMax =   1.91735516352765E-13  1.93248451940051E+00
(PID.TID 0000.0001)                    cg2d_init_res =    8.12415040473391E-01
(PID.TID 0000.0001)                       cg2d_iters =    33
(PID.TID 0000.0001)                         cg2d_res =    3.79243824165081E-14
(PID.TID 0000.0001) // =======================================================
(PID.TID 0000.0001) // Begin MONITOR dynamic field statistics
(PID.TID 0000.0001) // =======================================================
(PID.TID 0000.0001) %MON time_tsnumber                =                    26
(PID.TID 0000.0001) %MON time_secondsf                =   3.1200000000000E+04
(PID.TID 0000.0001) %MON dynstat_eta_max              =   4.9316376653391E-01
(PID.TID 0000.0001) %MON dynstat_eta_min              =  -4.9317735050897E-01
(PID.TID 0000.0001) %MON dynstat_eta_mean             =   4.6800119808307E-19
(PID.TID 0000.0001) %MON dynstat_eta_sd               =   2.1670079018890E-01
(PID.TID 0000.0001) %MON dynstat_eta_del2             =   2.1690945707014E-03
(PID.TID 0000.0001) %MON dynstat_uvel_max             =   9.5874067122806E-03
(PID.TID 0000.0001) %MON dynstat_uvel_min             =  -9.5874067122806E-03
(PID.TID 0000.0001) %MON dynstat_uvel_mean            =   3.5408357505439E-19
(PID.TID 0000.0001) %MON dynstat_uvel_sd              =   3.9712364688646E-03
(PID.TID 0000.0001) %MON dynstat_uvel_del2            =   4.8395213436913E-05
(PID.TID 0000.0001) %MON dynstat_vvel_max             =   9.5881343251464E-03
(PID.TID 0000.0001) %MON dynstat_vvel_min             =  -9.5881343251464E-03
(PID.TID 0000.0001) %MON dynstat_vvel_mean            =  -1.6951751155729E-18
(PID.TID 0000.0001) %MON dynstat_vvel_sd              =   3.9712835406464E-03
(PID.TID 0000.0001) %MON dynstat_vvel_del2            =   4.8393921406239E-05
(PID.TID 0000.0001) %MON dynstat_wvel_max             =   1.3479516813759E-05
(PID.TID 0000.0001) %MON dynstat_wvel_min             =  -1.3481939724545E-05
(PID.TID 0000.0001) %MON dynstat_wvel_mean            =  -7.7381150476698E-23
(PID.TID 0000.0001) %MON dynstat_wvel_sd              =   4.0457637528770E-06
(PID.TID 0000.0001) %MON dynstat_wvel_del2            =   3.6017237934231E-08
(PID.TID 0000.0001) %MON dynstat_theta_max            =   1.9991303623780E+01
(PID.TID 0000.0001) %MON dynstat_theta_min            =   6.0022432353020E+00
(PID.TID 0000.0001) %MON dynstat_theta_mean           =   1.1000000096082E+01
(PID.TID 0000.0001) %MON dynstat_theta_sd             =   5.3789163052431E+00
(PID.TID 0000.0001) %MON dynstat_theta_del2           =   9.9673627304157E-06
(PID.TID 0000.0001) %MON dynstat_salt_max             =   1.0000000000000E+01
(PID.TID 0000.0001) %MON dynstat_salt_min             =   1.0000000000000E+01
(PID.TID 0000.0001) %MON dynstat_salt_mean            =   1.0000000000000E+01
(PID.TID 0000.0001) %MON dynstat_salt_sd              =   0.0000000000000E+00
(PID.TID 0000.0001) %MON dynstat_salt_del2            =   0.0000000000000E+00
(PID.TID 0000.0001) %MON advcfl_uvel_max              =   1.1504888054737E-04
(PID.TID 0000.0001) %MON advcfl_vvel_max              =   1.1505761190176E-04
(PID.TID 0000.0001) %MON advcfl_wvel_max              =   6.4713310677816E-05
(PID.TID 0000.0001) %MON advcfl_W_hf_max              =   4.8559085214876E-05
(PID.TID 0000.0001) %MON pe_b_mean                    =  -1.1149907663813E-04
(PID.TID 0000.0001) %MON ke_max                       =   4.6120918948699E-05
(PID.TID 0000.0001) %MON ke_mean                      =   1.5440595960064E-05
(PID.TID 0000.0001) %MON ke_vol                       =   5.6340000000000E+16
(PID.TID 0000.0001) %MON vort_r_min                   =  -4.2957877381519E-08
(PID.TID 0000.0001) %MON vort_r_max                   =   4.2953486604298E-08
(PID.TID 0000.0001) %MON vort_a_mean                  =   1.0000000000000E-04
(PID.TID 0000.0001) %MON vort_a_sd                    =   1.1993310586187E-08
(PID.TID 0000.0001) %MON vort_p_mean                  =   1.0398839738941E-04
(PID.TID 0000.0001) %MON vort_p_sd                    =   3.0798699818533E-05
(PID.TID 0000.0001) %MON surfExpan_theta_mean         =   8.2072914782614E-09
(PID.TID 0000.0001) %MON surfExpan_salt_mean          =   1.4811235833430E-20
(PID.TID 0000.0001) // =======================================================
(PID.TID 0000.0001) // End MONITOR dynamic field statistics
(PID.TID 0000.0001) // =======================================================
 cg2d: Sum(rhs),rhsMax =  -1.95399252334028E-14  1.84797482208775E+00
(PID.TID 0000.0001)                    cg2d_init_res =    1.13091776926525E+00
(PID.TID 0000.0001)                       cg2d_iters =    33
(PID.TID 0000.0001)                         cg2d_res =    5.39210026635850E-14
(PID.TID 0000.0001) // =======================================================
(PID.TID 0000.0001) // Begin MONITOR dynamic field statistics
(PID.TID 0000.0001) // =======================================================
(PID.TID 0000.0001) %MON time_tsnumber                =                    27
(PID.TID 0000.0001) %MON time_secondsf                =   3.2400000000000E+04
(PID.TID 0000.0001) %MON dynstat_eta_max              =   4.7180719687684E-01
(PID.TID 0000.0001) %MON dynstat_eta_min              =  -4.7182185541293E-01
(PID.TID 0000.0001) %MON dynstat_eta_mean             =   5.2554801206958E-17
(PID.TID 0000.0001) %MON dynstat_eta_sd               =   2.0793018479646E-01
(PID.TID 0000.0001) %MON dynstat_eta_del2             =   2.0849461599588E-03
(PID.TID 0000.0001) %MON dynstat_uvel_max             =   9.3545337293344E-03
(PID.TID 0000.0001) %MON dynstat_uvel_min             =  -9.3545337293344E-03
(PID.TID 0000.0001) %MON dynstat_uvel_mean            =  -1.8412345902828E-18
(PID.TID 0000.0001) %MON dynstat_uvel_sd              =   3.9142318879212E-03
(PID.TID 0000.0001) %MON dynstat_uvel_del2            =   4.8221458544836E-05
(PID.TID 0000.0001) %MON dynstat_vvel_max             =   9.3552208155015E-03
(PID.TID 0000.0001) %MON dynstat_vvel_min             =  -9.3552208155015E-03
(PID.TID 0000.0001) %MON dynstat_vvel_mean            =  -1.3875650097444E-18
(PID.TID 0000.0001) %MON dynstat_vvel_sd              =   3.9143086667524E-03
(PID.TID 0000.0001) %MON dynstat_vvel_del2            =   4.8222533792359E-05
(PID.TID 0000.0001) %MON dynstat_wvel_max             =   1.8760572367538E-05
(PID.TID 0000.0001) %MON dynstat_wvel_min             =  -1.8761563769627E-05
(PID.TID 0000.0001) %MON dynstat_wvel_mean            =  -1.9345287619174E-21
(PID.TID 0000.0001) %MON dynstat_wvel_sd              =   5.2846740070129E-06
(PID.TID 0000.0001) %MON dynstat_wvel_del2            =   4.9836566829875E-08
(PID.TID 0000.0001) %MON dynstat_theta_max            =   1.9990669875916E+01
(PID.TID 0000.0001) %MON dynstat_theta_min            =   6.0023493848005E+00
(PID.TID 0000.0001) %MON dynstat_theta_mean           =   1.1000000089105E+01
(PID.TID 0000.0001) %MON dynstat_theta_sd             =   5.3786763001189E+00
(PID.TID 0000.0001) %MON dynstat_theta_del2           =   9.6210122238708E-06
(PID.TID 0000.0001) %MON dynstat_salt_max             =   1.0000000000000E+01
(PID.TID 0000.0001) %MON dynstat_salt_min             =   1.0000000000000E+01
(PID.TID 0000.0001) %MON dynstat_salt_mean            =   1.0000000000000E+01
(PID.TID 0000.0001) %MON dynstat_salt_sd              =   0.0000000000000E+00
(PID.TID 0000.0001) %MON dynstat_salt_del2            =   0.0000000000000E+00
(PID.TID 0000.0001) %MON advcfl_uvel_max              =   1.1225440475201E-04
(PID.TID 0000.0001) %MON advcfl_vvel_max              =   1.1226264978602E-04
(PID.TID 0000.0001) %MON advcfl_wvel_max              =   9.0055506094208E-05
(PID.TID 0000.0001) %MON advcfl_W_hf_max              =   6.7523770269077E-05
(PID.TID 0000.0001) %MON pe_b_mean                    =  -1.1144930694224E-04
(PID.TID 0000.0001) %MON ke_max                       =   4.5366207956933E-05
(PID.TID 0000.0001) %MON ke_mean                      =   1.5000613972174E-05
(PID.TID 0000.0001) %MON ke_vol                       =   5.6340000000000E+16
(PID.TID 0000.0001) %MON vort_r_min                   =  -4.3563151931615E-08
(PID.TID 0000.0001) %MON vort_r_max                   =   4.3558194040764E-08
(PID.TID 0000.0001) %MON vort_a_mean                  =   1.0000000000000E-04
(PID.TID 0000.0001) %MON vort_a_sd                    =   1.1492585796781E-08
(PID.TID 0000.0001) %MON vort_p_mean                  =   1.0398839738941E-04
(PID.TID 0000.0001) %MON vort_p_sd                    =   3.0798699490077E-05
(PID.TID 0000.0001) %MON surfExpan_theta_mean         =   1.1613930891707E-08
(PID.TID 0000.0001) %MON surfExpan_salt_mean          =   2.1158908333472E-21
(PID.TID 0000.0001) // =======================================================
(PID.TID 0000.0001) // End MONITOR dynamic field statistics
(PID.TID 0000.0001) // =======================================================
 cg2d: Sum(rhs),rhsMax =  -1.82964754458226E-13  1.75241732423922E+00
(PID.TID 0000.0001)                    cg2d_init_res =    1.32874750502157E+00
(PID.TID 0000.0001)                       cg2d_iters =    33
(PID.TID 0000.0001)                         cg2d_res =    7.15850636426560E-14
(PID.TID 0000.0001) // =======================================================
(PID.TID 0000.0001) // Begin MONITOR dynamic field statistics
(PID.TID 0000.0001) // =======================================================
(PID.TID 0000.0001) %MON time_tsnumber                =                    28
(PID.TID 0000.0001) %MON time_secondsf                =   3.3600000000000E+04
(PID.TID 0000.0001) %MON dynstat_eta_max              =   4.4771075539514E-01
(PID.TID 0000.0001) %MON dynstat_eta_min              =  -4.4772502622036E-01
(PID.TID 0000.0001) %MON dynstat_eta_mean             =   6.1290823571175E-17
(PID.TID 0000.0001) %MON dynstat_eta_sd               =   1.9795626574776E-01
(PID.TID 0000.0001) %MON dynstat_eta_del2             =   1.9872797443050E-03
(PID.TID 0000.0001) %MON dynstat_uvel_max             =   8.8828736831718E-03
(PID.TID 0000.0001) %MON dynstat_uvel_min             =  -8.8828736831718E-03
(PID.TID 0000.0001) %MON dynstat_uvel_mean            =  -7.2587132886149E-19
(PID.TID 0000.0001) %MON dynstat_uvel_sd              =   3.7864899053819E-03
(PID.TID 0000.0001) %MON dynstat_uvel_del2            =   4.7280635229065E-05
(PID.TID 0000.0001) %MON dynstat_vvel_max             =   8.8834976277830E-03
(PID.TID 0000.0001) %MON dynstat_vvel_min             =  -8.8834976277830E-03
(PID.TID 0000.0001) %MON dynstat_vvel_mean            =  -8.9406102701233E-19
(PID.TID 0000.0001) %MON dynstat_vvel_sd              =   3.7865838917973E-03
(PID.TID 0000.0001) %MON dynstat_vvel_del2            =   4.7281873345653E-05
(PID.TID 0000.0001) %MON dynstat_wvel_max             =   2.0964637742113E-05
(PID.TID 0000.0001) %MON dynstat_wvel_min             =  -2.0964277482615E-05
(PID.TID 0000.0001) %MON dynstat_wvel_mean            =  -1.3928607085806E-21
(PID.TID 0000.0001) %MON dynstat_wvel_sd              =   5.8473617070218E-06
(PID.TID 0000.0001) %MON dynstat_wvel_del2            =   5.6337593006774E-08
(PID.TID 0000.0001) %MON dynstat_theta_max            =   1.9990002023329E+01
(PID.TID 0000.0001) %MON dynstat_theta_min            =   6.0024578020114E+00
(PID.TID 0000.0001) %MON dynstat_theta_mean           =   1.1000000080910E+01
(PID.TID 0000.0001) %MON dynstat_theta_sd             =   5.3784363179814E+00
(PID.TID 0000.0001) %MON dynstat_theta_del2           =   9.1798351088042E-06
(PID.TID 0000.0001) %MON dynstat_salt_max             =   1.0000000000000E+01
(PID.TID 0000.0001) %MON dynstat_salt_min             =   1.0000000000000E+01
(PID.TID 0000.0001) %MON dynstat_salt_mean            =   1.0000000000000E+01
(PID.TID 0000.0001) %MON dynstat_salt_sd              =   0.0000000000000E+00
(PID.TID 0000.0001) %MON dynstat_salt_del2            =   0.0000000000000E+00
(PID.TID 0000.0001) %MON advcfl_uvel_max              =   1.0659448419806E-04
(PID.TID 0000.0001) %MON advcfl_vvel_max              =   1.0660197153340E-04
(PID.TID 0000.0001) %MON advcfl_wvel_max              =   1.0063026116214E-04
(PID.TID 0000.0001) %MON advcfl_W_hf_max              =   7.5409902516162E-05
(PID.TID 0000.0001) %MON pe_b_mean                    =  -1.1090512493014E-04
(PID.TID 0000.0001) %MON ke_max                       =   4.2726462836893E-05
(PID.TID 0000.0001) %MON ke_mean                      =   1.4037565683923E-05
(PID.TID 0000.0001) %MON ke_vol                       =   5.6340000000000E+16
(PID.TID 0000.0001) %MON vort_r_min                   =  -4.1849872347433E-08
(PID.TID 0000.0001) %MON vort_r_max                   =   4.1843827027987E-08
(PID.TID 0000.0001) %MON vort_a_mean                  =   1.0000000000000E-04
(PID.TID 0000.0001) %MON vort_a_sd                    =   1.0894764031279E-08
(PID.TID 0000.0001) %MON vort_p_mean                  =   1.0398839738941E-04
(PID.TID 0000.0001) %MON vort_p_sd                    =   3.0798699119431E-05
(PID.TID 0000.0001) %MON surfExpan_theta_mean         =   1.2554358133861E-08
(PID.TID 0000.0001) %MON surfExpan_salt_mean          =  -6.3476725000416E-21
(PID.TID 0000.0001) // =======================================================
(PID.TID 0000.0001) // End MONITOR dynamic field statistics
(PID.TID 0000.0001) // =======================================================
(PID.TID 0000.0001) %CHECKPOINT        28 0000000028
 cg2d: Sum(rhs),rhsMax =  -4.72510919280467E-13  1.66063016125425E+00
(PID.TID 0000.0001)                    cg2d_init_res =    1.35332339618148E+00
(PID.TID 0000.0001)                       cg2d_iters =    33
(PID.TID 0000.0001)                         cg2d_res =    8.40180281588255E-14
(PID.TID 0000.0001) // =======================================================
(PID.TID 0000.0001) // Begin MONITOR dynamic field statistics
(PID.TID 0000.0001) // =======================================================
(PID.TID 0000.0001) %MON time_tsnumber                =                    29
(PID.TID 0000.0001) %MON time_secondsf                =   3.4800000000000E+04
(PID.TID 0000.0001) %MON dynstat_eta_max              =   4.2460410536294E-01
(PID.TID 0000.0001) %MON dynstat_eta_min              =  -4.2461701478124E-01
(PID.TID 0000.0001) %MON dynstat_eta_mean             =   9.2074902378417E-17
(PID.TID 0000.0001) %MON dynstat_eta_sd               =   1.8835640098517E-01
(PID.TID 0000.0001) %MON dynstat_eta_del2             =   1.8921044302537E-03
(PID.TID 0000.0001) %MON dynstat_uvel_max             =   8.2436013092109E-03
(PID.TID 0000.0001) %MON dynstat_uvel_min             =  -8.2436013092109E-03
(PID.TID 0000.0001) %MON dynstat_uvel_mean            =  -7.7898386511965E-19
(PID.TID 0000.0001) %MON dynstat_uvel_sd              =   3.5824966493428E-03
(PID.TID 0000.0001) %MON dynstat_uvel_del2            =   4.5105301647553E-05
(PID.TID 0000.0001) %MON dynstat_vvel_max             =   8.2441451545503E-03
(PID.TID 0000.0001) %MON dynstat_vvel_min             =  -8.2441451545503E-03
(PID.TID 0000.0001) %MON dynstat_vvel_mean            =  -7.2587132886149E-19
(PID.TID 0000.0001) %MON dynstat_vvel_sd              =   3.5825933704755E-03
(PID.TID 0000.0001) %MON dynstat_vvel_del2            =   4.5106830996095E-05
(PID.TID 0000.0001) %MON dynstat_wvel_max             =   2.0023235685503E-05
(PID.TID 0000.0001) %MON dynstat_wvel_min             =  -2.0021989666417E-05
(PID.TID 0000.0001) %MON dynstat_wvel_mean            =   1.2380984076272E-21
(PID.TID 0000.0001) %MON dynstat_wvel_sd              =   5.6262065190041E-06
(PID.TID 0000.0001) %MON dynstat_wvel_del2            =   5.4923013510494E-08
(PID.TID 0000.0001) %MON dynstat_theta_max            =   1.9989330880331E+01
(PID.TID 0000.0001) %MON dynstat_theta_min            =   6.0025664311860E+00
(PID.TID 0000.0001) %MON dynstat_theta_mean           =   1.1000000073039E+01
(PID.TID 0000.0001) %MON dynstat_theta_sd             =   5.3781963612956E+00
(PID.TID 0000.0001) %MON dynstat_theta_del2           =   8.7215983044646E-06
(PID.TID 0000.0001) %MON dynstat_salt_max             =   1.0000000000000E+01
(PID.TID 0000.0001) %MON dynstat_salt_min             =   1.0000000000000E+01
(PID.TID 0000.0001) %MON dynstat_salt_mean            =   1.0000000000000E+01
(PID.TID 0000.0001) %MON dynstat_salt_sd              =   0.0000000000000E+00
(PID.TID 0000.0001) %MON dynstat_salt_del2            =   0.0000000000000E+00
(PID.TID 0000.0001) %MON advcfl_uvel_max              =   9.8923215710531E-05
(PID.TID 0000.0001) %MON advcfl_vvel_max              =   9.8929741854604E-05
(PID.TID 0000.0001) %MON advcfl_wvel_max              =   9.6111531290412E-05
(PID.TID 0000.0001) %MON advcfl_W_hf_max              =   7.1972689470653E-05
(PID.TID 0000.0001) %MON pe_b_mean                    =  -1.0987217161771E-04
(PID.TID 0000.0001) %MON ke_max                       =   3.8016259207095E-05
(PID.TID 0000.0001) %MON ke_mean                      =   1.2565816859604E-05
(PID.TID 0000.0001) %MON ke_vol                       =   5.6340000000000E+16
(PID.TID 0000.0001) %MON vort_r_min                   =  -3.8102304145674E-08
(PID.TID 0000.0001) %MON vort_r_max                   =   3.8094965162809E-08
(PID.TID 0000.0001) %MON vort_a_mean                  =   1.0000000000000E-04
(PID.TID 0000.0001) %MON vort_a_sd                    =   1.0257608330448E-08
(PID.TID 0000.0001) %MON vort_p_mean                  =   1.0398839738941E-04
(PID.TID 0000.0001) %MON vort_p_sd                    =   3.0798698739468E-05
(PID.TID 0000.0001) %MON surfExpan_theta_mean         =   1.1438559059126E-08
(PID.TID 0000.0001) %MON surfExpan_salt_mean          =  -1.5869181250104E-20
(PID.TID 0000.0001) // =======================================================
(PID.TID 0000.0001) // End MONITOR dynamic field statistics
(PID.TID 0000.0001) // =======================================================
 cg2d: Sum(rhs),rhsMax =  -6.89226453687297E-13  1.58683091531969E+00
(PID.TID 0000.0001)                    cg2d_init_res =    1.18810660319645E+00
(PID.TID 0000.0001)                       cg2d_iters =    33
(PID.TID 0000.0001)                         cg2d_res =    8.60626944227959E-14
(PID.TID 0000.0001) // =======================================================
(PID.TID 0000.0001) // Begin MONITOR dynamic field statistics
(PID.TID 0000.0001) // =======================================================
(PID.TID 0000.0001) %MON time_tsnumber                =                    30
(PID.TID 0000.0001) %MON time_secondsf                =   3.6000000000000E+04
(PID.TID 0000.0001) %MON dynstat_eta_max              =   4.0588241118727E-01
(PID.TID 0000.0001) %MON dynstat_eta_min              =  -4.0589419396146E-01
(PID.TID 0000.0001) %MON dynstat_eta_mean             =   1.2701899183529E-16
(PID.TID 0000.0001) %MON dynstat_eta_sd               =   1.8044990737262E-01
(PID.TID 0000.0001) %MON dynstat_eta_del2             =   1.8121368392232E-03
(PID.TID 0000.0001) %MON dynstat_uvel_max             =   7.5341081462774E-03
(PID.TID 0000.0001) %MON dynstat_uvel_min             =  -7.5341081462774E-03
(PID.TID 0000.0001) %MON dynstat_uvel_mean            =  -7.7898386511965E-19
(PID.TID 0000.0001) %MON dynstat_uvel_sd              =   3.3343776552988E-03
(PID.TID 0000.0001) %MON dynstat_uvel_del2            =   4.2032103565002E-05
(PID.TID 0000.0001) %MON dynstat_vvel_max             =   7.5344186866130E-03
(PID.TID 0000.0001) %MON dynstat_vvel_min             =  -7.5344186866130E-03
(PID.TID 0000.0001) %MON dynstat_vvel_mean            =  -7.4357550761421E-19
(PID.TID 0000.0001) %MON dynstat_vvel_sd              =   3.3344645144429E-03
(PID.TID 0000.0001) %MON dynstat_vvel_del2            =   4.2033883713634E-05
(PID.TID 0000.0001) %MON dynstat_wvel_max             =   1.6421892238049E-05
(PID.TID 0000.0001) %MON dynstat_wvel_min             =  -1.6420836157092E-05
(PID.TID 0000.0001) %MON dynstat_wvel_mean            =  -2.3214345143009E-22
(PID.TID 0000.0001) %MON dynstat_wvel_sd              =   4.7136399144052E-06
(PID.TID 0000.0001) %MON dynstat_wvel_del2            =   4.6622432354073E-08
(PID.TID 0000.0001) %MON dynstat_theta_max            =   1.9988684659655E+01
(PID.TID 0000.0001) %MON dynstat_theta_min            =   6.0026733907626E+00
(PID.TID 0000.0001) %MON dynstat_theta_mean           =   1.1000000066578E+01
(PID.TID 0000.0001) %MON dynstat_theta_sd             =   5.3779564318665E+00
(PID.TID 0000.0001) %MON dynstat_theta_del2           =   8.3160523856625E-06
(PID.TID 0000.0001) %MON dynstat_salt_max             =   1.0000000000000E+01
(PID.TID 0000.0001) %MON dynstat_salt_min             =   1.0000000000000E+01
(PID.TID 0000.0001) %MON dynstat_salt_mean            =   1.0000000000000E+01
(PID.TID 0000.0001) %MON dynstat_salt_sd              =   0.0000000000000E+00
(PID.TID 0000.0001) %MON dynstat_salt_del2            =   0.0000000000000E+00
(PID.TID 0000.0001) %MON advcfl_uvel_max              =   9.0409297755329E-05
(PID.TID 0000.0001) %MON advcfl_vvel_max              =   9.0413024239356E-05
(PID.TID 0000.0001) %MON advcfl_wvel_max              =   7.8825082742637E-05
(PID.TID 0000.0001) %MON advcfl_W_hf_max              =   5.8963372145861E-05
(PID.TID 0000.0001) %MON pe_b_mean                    =  -1.0863382083271E-04
(PID.TID 0000.0001) %MON ke_max                       =   3.2019863800260E-05
(PID.TID 0000.0001) %MON ke_mean                      =   1.0885497990010E-05
(PID.TID 0000.0001) %MON ke_vol                       =   5.6340000000000E+16
(PID.TID 0000.0001) %MON vort_r_min                   =  -3.2794629895918E-08
(PID.TID 0000.0001) %MON vort_r_max                   =   3.2786058213971E-08
(PID.TID 0000.0001) %MON vort_a_mean                  =   1.0000000000000E-04
(PID.TID 0000.0001) %MON vort_a_sd                    =   9.6477253436573E-09
(PID.TID 0000.0001) %MON vort_p_mean                  =   1.0398839738941E-04
(PID.TID 0000.0001) %MON vort_p_sd                    =   3.0798698385547E-05
(PID.TID 0000.0001) %MON surfExpan_theta_mean         =   8.9537062892856E-09
(PID.TID 0000.0001) %MON surfExpan_salt_mean          =  -1.0579454166736E-21
(PID.TID 0000.0001) // =======================================================
(PID.TID 0000.0001) // End MONITOR dynamic field statistics
(PID.TID 0000.0001) // =======================================================
 cg2d: Sum(rhs),rhsMax =  -9.55679979597335E-13  1.53792940319636E+00
(PID.TID 0000.0001)                    cg2d_init_res =    8.62556256030149E-01
(PID.TID 0000.0001)                       cg2d_iters =    33
(PID.TID 0000.0001)                         cg2d_res =    7.55303191617756E-14
(PID.TID 0000.0001) // =======================================================
(PID.TID 0000.0001) // Begin MONITOR dynamic field statistics
(PID.TID 0000.0001) // =======================================================
(PID.TID 0000.0001) %MON time_tsnumber                =                    31
(PID.TID 0000.0001) %MON time_secondsf                =   3.7200000000000E+04
(PID.TID 0000.0001) %MON dynstat_eta_max              =   3.9366807178796E-01
(PID.TID 0000.0001) %MON dynstat_eta_min              =  -3.9367818070094E-01
(PID.TID 0000.0001) %MON dynstat_eta_mean             =   1.7915779197728E-16
(PID.TID 0000.0001) %MON dynstat_eta_sd               =   1.7514168290486E-01
(PID.TID 0000.0001) %MON dynstat_eta_del2             =   1.7563937268272E-03
(PID.TID 0000.0001) %MON dynstat_uvel_max             =   6.8314032226546E-03
(PID.TID 0000.0001) %MON dynstat_uvel_min             =  -6.8314032226546E-03
(PID.TID 0000.0001) %MON dynstat_uvel_mean            =  -4.7801282632342E-19
(PID.TID 0000.0001) %MON dynstat_uvel_sd              =   3.1031586515588E-03
(PID.TID 0000.0001) %MON dynstat_uvel_del2            =   3.8840544049310E-05
(PID.TID 0000.0001) %MON dynstat_vvel_max             =   6.8316370873537E-03
(PID.TID 0000.0001) %MON dynstat_vvel_min             =  -6.8316370873537E-03
(PID.TID 0000.0001) %MON dynstat_vvel_mean            =  -4.9571700507614E-19
(PID.TID 0000.0001) %MON dynstat_vvel_sd              =   3.1032298892488E-03
(PID.TID 0000.0001) %MON dynstat_vvel_del2            =   3.8841498100726E-05
(PID.TID 0000.0001) %MON dynstat_wvel_max             =   1.0973109572752E-05
(PID.TID 0000.0001) %MON dynstat_wvel_min             =  -1.0972335744127E-05
(PID.TID 0000.0001) %MON dynstat_wvel_mean            =  -3.8690575238349E-22
(PID.TID 0000.0001) %MON dynstat_wvel_sd              =   3.3187548703040E-06
(PID.TID 0000.0001) %MON dynstat_wvel_del2            =   3.3454086102718E-08
(PID.TID 0000.0001) %MON dynstat_theta_max            =   1.9988086916762E+01
(PID.TID 0000.0001) %MON dynstat_theta_min            =   6.0027771072772E+00
(PID.TID 0000.0001) %MON dynstat_theta_mean           =   1.1000000062100E+01
(PID.TID 0000.0001) %MON dynstat_theta_sd             =   5.3777165307232E+00
(PID.TID 0000.0001) %MON dynstat_theta_del2           =   8.0155026190285E-06
(PID.TID 0000.0001) %MON dynstat_salt_max             =   1.0000000000000E+01
(PID.TID 0000.0001) %MON dynstat_salt_min             =   1.0000000000000E+01
(PID.TID 0000.0001) %MON dynstat_salt_mean            =   1.0000000000000E+01
(PID.TID 0000.0001) %MON dynstat_salt_sd              =   0.0000000000000E+00
(PID.TID 0000.0001) %MON dynstat_salt_del2            =   0.0000000000000E+00
(PID.TID 0000.0001) %MON advcfl_uvel_max              =   8.1976838671855E-05
(PID.TID 0000.0001) %MON advcfl_vvel_max              =   8.1979645048245E-05
(PID.TID 0000.0001) %MON advcfl_wvel_max              =   5.2670925949208E-05
(PID.TID 0000.0001) %MON advcfl_W_hf_max              =   3.9299001158146E-05
(PID.TID 0000.0001) %MON pe_b_mean                    =  -1.0760102954455E-04
(PID.TID 0000.0001) %MON ke_max                       =   2.5688197028035E-05
(PID.TID 0000.0001) %MON ke_mean                      =   9.4281252717687E-06
(PID.TID 0000.0001) %MON ke_vol                       =   5.6340000000000E+16
(PID.TID 0000.0001) %MON vort_r_min                   =  -2.6506908185317E-08
(PID.TID 0000.0001) %MON vort_r_max                   =   2.6497329234173E-08
(PID.TID 0000.0001) %MON vort_a_mean                  =   1.0000000000000E-04
(PID.TID 0000.0001) %MON vort_a_sd                    =   9.1354321066000E-09
(PID.TID 0000.0001) %MON vort_p_mean                  =   1.0398839738941E-04
(PID.TID 0000.0001) %MON vort_p_sd                    =   3.0798698090842E-05
(PID.TID 0000.0001) %MON surfExpan_theta_mean         =   5.7791826465884E-09
(PID.TID 0000.0001) %MON surfExpan_salt_mean          =   4.7607543750312E-21
(PID.TID 0000.0001) // =======================================================
(PID.TID 0000.0001) // End MONITOR dynamic field statistics
(PID.TID 0000.0001) // =======================================================
 cg2d: Sum(rhs),rhsMax =  -1.17950094136177E-12  1.51757952118029E+00
(PID.TID 0000.0001)                    cg2d_init_res =    4.58225733220760E-01
(PID.TID 0000.0001)                       cg2d_iters =    33
(PID.TID 0000.0001)                         cg2d_res =    5.87050806812586E-14
(PID.TID 0000.0001) // =======================================================
(PID.TID 0000.0001) // Begin MONITOR dynamic field statistics
(PID.TID 0000.0001) // =======================================================
(PID.TID 0000.0001) %MON time_tsnumber                =                    32
(PID.TID 0000.0001) %MON time_secondsf                =   3.8400000000000E+04
(PID.TID 0000.0001) %MON dynstat_eta_max              =   3.8868147785611E-01
(PID.TID 0000.0001) %MON dynstat_eta_min              =  -3.8869055695186E-01
(PID.TID 0000.0001) %MON dynstat_eta_mean             =   1.9912584309549E-16
(PID.TID 0000.0001) %MON dynstat_eta_sd               =   1.7285602059721E-01
(PID.TID 0000.0001) %MON dynstat_eta_del2             =   1.7298827315592E-03
(PID.TID 0000.0001) %MON dynstat_uvel_max             =   6.1897878234837E-03
(PID.TID 0000.0001) %MON dynstat_uvel_min             =  -6.1897878234837E-03
(PID.TID 0000.0001) %MON dynstat_uvel_mean            =  -1.0976590826686E-18
(PID.TID 0000.0001) %MON dynstat_uvel_sd              =   2.9556897524019E-03
(PID.TID 0000.0001) %MON dynstat_uvel_del2            =   3.6394874970800E-05
(PID.TID 0000.0001) %MON dynstat_vvel_max             =   6.1899935292982E-03
(PID.TID 0000.0001) %MON dynstat_vvel_min             =  -6.1899935292981E-03
(PID.TID 0000.0001) %MON dynstat_vvel_mean            =  -5.6653372008702E-19
(PID.TID 0000.0001) %MON dynstat_vvel_sd              =   2.9557505706577E-03
(PID.TID 0000.0001) %MON dynstat_vvel_del2            =   3.6394747308580E-05
(PID.TID 0000.0001) %MON dynstat_wvel_max             =   6.6532993202678E-06
(PID.TID 0000.0001) %MON dynstat_wvel_min             =  -6.6520661460212E-06
(PID.TID 0000.0001) %MON dynstat_wvel_mean            =   4.6428690286019E-22
(PID.TID 0000.0001) %MON dynstat_wvel_sd              =   1.7585833772431E-06
(PID.TID 0000.0001) %MON dynstat_wvel_del2            =   1.8419184828612E-08
(PID.TID 0000.0001) %MON dynstat_theta_max            =   1.9987545216897E+01
(PID.TID 0000.0001) %MON dynstat_theta_min            =   6.0028770773789E+00
(PID.TID 0000.0001) %MON dynstat_theta_mean           =   1.1000000059775E+01
(PID.TID 0000.0001) %MON dynstat_theta_sd             =   5.3774766582426E+00
(PID.TID 0000.0001) %MON dynstat_theta_del2           =   7.8495159531869E-06
(PID.TID 0000.0001) %MON dynstat_salt_max             =   1.0000000000000E+01
(PID.TID 0000.0001) %MON dynstat_salt_min             =   1.0000000000000E+01
(PID.TID 0000.0001) %MON dynstat_salt_mean            =   1.0000000000000E+01
(PID.TID 0000.0001) %MON dynstat_salt_sd              =   0.0000000000000E+00
(PID.TID 0000.0001) %MON dynstat_salt_del2            =   0.0000000000000E+00
(PID.TID 0000.0001) %MON advcfl_uvel_max              =   7.4277453881804E-05
(PID.TID 0000.0001) %MON advcfl_vvel_max              =   7.4279922351578E-05
(PID.TID 0000.0001) %MON advcfl_wvel_max              =   3.1935836737285E-05
(PID.TID 0000.0001) %MON advcfl_W_hf_max              =   2.3260819108571E-05
(PID.TID 0000.0001) %MON pe_b_mean                    =  -1.0711325829309E-04
(PID.TID 0000.0001) %MON ke_max                       =   2.4878103839682E-05
(PID.TID 0000.0001) %MON ke_mean                      =   8.5533066586577E-06
(PID.TID 0000.0001) %MON ke_vol                       =   5.6340000000000E+16
(PID.TID 0000.0001) %MON vort_r_min                   =  -2.4885375537467E-08
(PID.TID 0000.0001) %MON vort_r_max                   =   2.4896131636613E-08
(PID.TID 0000.0001) %MON vort_a_mean                  =   1.0000000000000E-04
(PID.TID 0000.0001) %MON vort_a_sd                    =   8.7821939612910E-09
(PID.TID 0000.0001) %MON vort_p_mean                  =   1.0398839738941E-04
(PID.TID 0000.0001) %MON vort_p_sd                    =   3.0798697879547E-05
(PID.TID 0000.0001) %MON surfExpan_theta_mean         =   2.4312229021289E-09
(PID.TID 0000.0001) %MON surfExpan_salt_mean          =  -1.0579454166736E-21
(PID.TID 0000.0001) // =======================================================
(PID.TID 0000.0001) // End MONITOR dynamic field statistics
(PID.TID 0000.0001) // =======================================================
 cg2d: Sum(rhs),rhsMax =  -1.21147536447097E-12  1.52556103271162E+00
(PID.TID 0000.0001)                    cg2d_init_res =    2.32163960596798E-01
(PID.TID 0000.0001)                       cg2d_iters =    33
(PID.TID 0000.0001)                         cg2d_res =    4.04405693991945E-14
(PID.TID 0000.0001) // =======================================================
(PID.TID 0000.0001) // Begin MONITOR dynamic field statistics
(PID.TID 0000.0001) // =======================================================
(PID.TID 0000.0001) %MON time_tsnumber                =                    33
(PID.TID 0000.0001) %MON time_secondsf                =   3.9600000000000E+04
(PID.TID 0000.0001) %MON dynstat_eta_max              =   3.9085735279443E-01
(PID.TID 0000.0001) %MON dynstat_eta_min              =  -3.9086608832969E-01
(PID.TID 0000.0001) %MON dynstat_eta_mean             =   2.0411785587504E-16
(PID.TID 0000.0001) %MON dynstat_eta_sd               =   1.7355314364184E-01
(PID.TID 0000.0001) %MON dynstat_eta_del2             =   1.7329339136662E-03
(PID.TID 0000.0001) %MON dynstat_uvel_max             =   6.1315518524946E-03
(PID.TID 0000.0001) %MON dynstat_uvel_min             =  -6.1315518524946E-03
(PID.TID 0000.0001) %MON dynstat_uvel_mean            =   1.2392925126904E-19
(PID.TID 0000.0001) %MON dynstat_uvel_sd              =   2.9300528172612E-03
(PID.TID 0000.0001) %MON dynstat_uvel_del2            =   3.5430531026632E-05
(PID.TID 0000.0001) %MON dynstat_vvel_max             =   6.1311089292173E-03
(PID.TID 0000.0001) %MON dynstat_vvel_min             =  -6.1311089292173E-03
(PID.TID 0000.0001) %MON dynstat_vvel_mean            =  -7.7898386511965E-19
(PID.TID 0000.0001) %MON dynstat_vvel_sd              =   2.9301176353329E-03
(PID.TID 0000.0001) %MON dynstat_vvel_del2            =   3.5428209087377E-05
(PID.TID 0000.0001) %MON dynstat_wvel_max             =   3.4573645199301E-06
(PID.TID 0000.0001) %MON dynstat_wvel_min             =  -3.4570293272268E-06
(PID.TID 0000.0001) %MON dynstat_wvel_mean            =  -7.7381150476698E-23
(PID.TID 0000.0001) %MON dynstat_wvel_sd              =   9.5342759906547E-07
(PID.TID 0000.0001) %MON dynstat_wvel_del2            =   9.4448300177063E-09
(PID.TID 0000.0001) %MON dynstat_theta_max            =   1.9987062886197E+01
(PID.TID 0000.0001) %MON dynstat_theta_min            =   6.0029730832837E+00
(PID.TID 0000.0001) %MON dynstat_theta_mean           =   1.1000000059522E+01
(PID.TID 0000.0001) %MON dynstat_theta_sd             =   5.3772368143510E+00
(PID.TID 0000.0001) %MON dynstat_theta_del2           =   7.8286417723645E-06
(PID.TID 0000.0001) %MON dynstat_salt_max             =   1.0000000000000E+01
(PID.TID 0000.0001) %MON dynstat_salt_min             =   1.0000000000000E+01
(PID.TID 0000.0001) %MON dynstat_salt_mean            =   1.0000000000000E+01
(PID.TID 0000.0001) %MON dynstat_salt_sd              =   0.0000000000000E+00
(PID.TID 0000.0001) %MON dynstat_salt_del2            =   0.0000000000000E+00
(PID.TID 0000.0001) %MON advcfl_uvel_max              =   7.3578622229935E-05
(PID.TID 0000.0001) %MON advcfl_vvel_max              =   7.3573307150608E-05
(PID.TID 0000.0001) %MON advcfl_wvel_max              =   1.6595349695664E-05
(PID.TID 0000.0001) %MON advcfl_W_hf_max              =   1.1749512607575E-05
(PID.TID 0000.0001) %MON pe_b_mean                    =  -1.0729879179746E-04
(PID.TID 0000.0001) %MON ke_max                       =   2.7997115566406E-05
(PID.TID 0000.0001) %MON ke_mean                      =   8.4055845367823E-06
(PID.TID 0000.0001) %MON ke_vol                       =   5.6340000000000E+16
(PID.TID 0000.0001) %MON vort_r_min                   =  -2.3336686712864E-08
(PID.TID 0000.0001) %MON vort_r_max                   =   2.3348800357306E-08
(PID.TID 0000.0001) %MON vort_a_mean                  =   1.0000000000000E-04
(PID.TID 0000.0001) %MON vort_a_sd                    =   8.6235117473154E-09
(PID.TID 0000.0001) %MON vort_p_mean                  =   1.0398839738941E-04
(PID.TID 0000.0001) %MON vort_p_sd                    =   3.0798697761526E-05
(PID.TID 0000.0001) %MON surfExpan_theta_mean         =  -7.4775173354988E-10
(PID.TID 0000.0001) %MON surfExpan_salt_mean          =  -2.5126203645998E-21
(PID.TID 0000.0001) // =======================================================
(PID.TID 0000.0001) // End MONITOR dynamic field statistics
(PID.TID 0000.0001) // =======================================================
 cg2d: Sum(rhs),rhsMax =  -1.40687461680500E-12  1.55778359458532E+00
(PID.TID 0000.0001)                    cg2d_init_res =    4.80561052300855E-01
(PID.TID 0000.0001)                       cg2d_iters =    33
(PID.TID 0000.0001)                         cg2d_res =    3.64786534021125E-14
(PID.TID 0000.0001) // =======================================================
(PID.TID 0000.0001) // Begin MONITOR dynamic field statistics
(PID.TID 0000.0001) // =======================================================
(PID.TID 0000.0001) %MON time_tsnumber                =                    34
(PID.TID 0000.0001) %MON time_secondsf                =   4.0800000000000E+04
(PID.TID 0000.0001) %MON dynstat_eta_max              =   3.9915435416565E-01
(PID.TID 0000.0001) %MON dynstat_eta_min              =  -3.9916327660654E-01
(PID.TID 0000.0001) %MON dynstat_eta_mean             =   2.1576588569400E-16
(PID.TID 0000.0001) %MON dynstat_eta_sd               =   1.7680287336680E-01
(PID.TID 0000.0001) %MON dynstat_eta_del2             =   1.7619350971752E-03
(PID.TID 0000.0001) %MON dynstat_uvel_max             =   6.9858229885080E-03
(PID.TID 0000.0001) %MON dynstat_uvel_min             =  -6.9858229885080E-03
(PID.TID 0000.0001) %MON dynstat_uvel_mean            =   2.4785850253807E-19
(PID.TID 0000.0001) %MON dynstat_uvel_sd              =   3.0130984720187E-03
(PID.TID 0000.0001) %MON dynstat_uvel_del2            =   3.5879098212775E-05
(PID.TID 0000.0001) %MON dynstat_vvel_max             =   6.9857417633299E-03
(PID.TID 0000.0001) %MON dynstat_vvel_min             =  -6.9857417633299E-03
(PID.TID 0000.0001) %MON dynstat_vvel_mean            =  -2.1245014503263E-19
(PID.TID 0000.0001) %MON dynstat_vvel_sd              =   3.0131815446844E-03
(PID.TID 0000.0001) %MON dynstat_vvel_del2            =   3.5875481191718E-05
(PID.TID 0000.0001) %MON dynstat_wvel_max             =   7.1251704430892E-06
(PID.TID 0000.0001) %MON dynstat_wvel_min             =  -7.1256186834434E-06
(PID.TID 0000.0001) %MON dynstat_wvel_mean            =   9.6726438095872E-24
(PID.TID 0000.0001) %MON dynstat_wvel_sd              =   1.9155180746999E-06
(PID.TID 0000.0001) %MON dynstat_wvel_del2            =   1.9784256814596E-08
(PID.TID 0000.0001) %MON dynstat_theta_max            =   1.9986633143072E+01
(PID.TID 0000.0001) %MON dynstat_theta_min            =   6.0030655664736E+00
(PID.TID 0000.0001) %MON dynstat_theta_mean           =   1.1000000061115E+01
(PID.TID 0000.0001) %MON dynstat_theta_sd             =   5.3769969986773E+00
(PID.TID 0000.0001) %MON dynstat_theta_del2           =   7.9413087299863E-06
(PID.TID 0000.0001) %MON dynstat_salt_max             =   1.0000000000000E+01
(PID.TID 0000.0001) %MON dynstat_salt_min             =   1.0000000000000E+01
(PID.TID 0000.0001) %MON dynstat_salt_mean            =   1.0000000000000E+01
(PID.TID 0000.0001) %MON dynstat_salt_sd              =   0.0000000000000E+00
(PID.TID 0000.0001) %MON dynstat_salt_del2            =   0.0000000000000E+00
(PID.TID 0000.0001) %MON advcfl_uvel_max              =   8.3829875862096E-05
(PID.TID 0000.0001) %MON advcfl_vvel_max              =   8.3828901159959E-05
(PID.TID 0000.0001) %MON advcfl_wvel_max              =   3.4202969680528E-05
(PID.TID 0000.0001) %MON advcfl_W_hf_max              =   2.5997164586039E-05
(PID.TID 0000.0001) %MON pe_b_mean                    =  -1.0805143012514E-04
(PID.TID 0000.0001) %MON ke_max                       =   3.2711909897546E-05
(PID.TID 0000.0001) %MON ke_mean                      =   8.8888594457729E-06
(PID.TID 0000.0001) %MON ke_vol                       =   5.6340000000000E+16
(PID.TID 0000.0001) %MON vort_r_min                   =  -2.1329506594486E-08
(PID.TID 0000.0001) %MON vort_r_max                   =   2.1345239136750E-08
(PID.TID 0000.0001) %MON vort_a_mean                  =   1.0000000000000E-04
(PID.TID 0000.0001) %MON vort_a_sd                    =   8.6564429087429E-09
(PID.TID 0000.0001) %MON vort_p_mean                  =   1.0398839738941E-04
(PID.TID 0000.0001) %MON vort_p_sd                    =   3.0798697730906E-05
(PID.TID 0000.0001) %MON surfExpan_theta_mean         =  -3.5155506234112E-09
(PID.TID 0000.0001) %MON surfExpan_salt_mean          =  -4.0995384896102E-21
(PID.TID 0000.0001) // =======================================================
(PID.TID 0000.0001) // End MONITOR dynamic field statistics
(PID.TID 0000.0001) // =======================================================
 cg2d: Sum(rhs),rhsMax =  -1.21147536447097E-12  1.60731178792399E+00
(PID.TID 0000.0001)                    cg2d_init_res =    7.14112031794429E-01
(PID.TID 0000.0001)                       cg2d_iters =    33
(PID.TID 0000.0001)                         cg2d_res =    4.04010626646747E-14
(PID.TID 0000.0001) // =======================================================
(PID.TID 0000.0001) // Begin MONITOR dynamic field statistics
(PID.TID 0000.0001) // =======================================================
(PID.TID 0000.0001) %MON time_tsnumber                =                    35
(PID.TID 0000.0001) %MON time_secondsf                =   4.2000000000000E+04
(PID.TID 0000.0001) %MON dynstat_eta_max              =   4.1181334976882E-01
(PID.TID 0000.0001) %MON dynstat_eta_min              =  -4.1182277363749E-01
(PID.TID 0000.0001) %MON dynstat_eta_mean             =   2.0966453674121E-16
(PID.TID 0000.0001) %MON dynstat_eta_sd               =   1.8189002369585E-01
(PID.TID 0000.0001) %MON dynstat_eta_del2             =   1.8098774420345E-03
(PID.TID 0000.0001) %MON dynstat_uvel_max             =   7.7296448596383E-03
(PID.TID 0000.0001) %MON dynstat_uvel_min             =  -7.7296448596383E-03
(PID.TID 0000.0001) %MON dynstat_uvel_mean            =  -1.0622507251632E-19
(PID.TID 0000.0001) %MON dynstat_uvel_sd              =   3.1551917861616E-03
(PID.TID 0000.0001) %MON dynstat_uvel_del2            =   3.7356879693847E-05
(PID.TID 0000.0001) %MON dynstat_vvel_max             =   7.7298502051029E-03
(PID.TID 0000.0001) %MON dynstat_vvel_min             =  -7.7298502051030E-03
(PID.TID 0000.0001) %MON dynstat_vvel_mean            =  -6.3735043509790E-19
(PID.TID 0000.0001) %MON dynstat_vvel_sd              =   3.1552982449336E-03
(PID.TID 0000.0001) %MON dynstat_vvel_del2            =   3.7352492658886E-05
(PID.TID 0000.0001) %MON dynstat_wvel_max             =   1.1002664157796E-05
(PID.TID 0000.0001) %MON dynstat_wvel_min             =  -1.1003286334280E-05
(PID.TID 0000.0001) %MON dynstat_wvel_mean            =  -1.7410758857257E-22
(PID.TID 0000.0001) %MON dynstat_wvel_sd              =   2.9048817721598E-06
(PID.TID 0000.0001) %MON dynstat_wvel_del2            =   2.9208269329984E-08
(PID.TID 0000.0001) %MON dynstat_theta_max            =   1.9986245052087E+01
(PID.TID 0000.0001) %MON dynstat_theta_min            =   6.0031552690642E+00
(PID.TID 0000.0001) %MON dynstat_theta_mean           =   1.1000000064221E+01
(PID.TID 0000.0001) %MON dynstat_theta_sd             =   5.3767572106178E+00
(PID.TID 0000.0001) %MON dynstat_theta_del2           =   8.1593908321786E-06
(PID.TID 0000.0001) %MON dynstat_salt_max             =   1.0000000000000E+01
(PID.TID 0000.0001) %MON dynstat_salt_min             =   1.0000000000000E+01
(PID.TID 0000.0001) %MON dynstat_salt_mean            =   1.0000000000000E+01
(PID.TID 0000.0001) %MON dynstat_salt_sd              =   0.0000000000000E+00
(PID.TID 0000.0001) %MON dynstat_salt_del2            =   0.0000000000000E+00
(PID.TID 0000.0001) %MON advcfl_uvel_max              =   9.2755738315660E-05
(PID.TID 0000.0001) %MON advcfl_vvel_max              =   9.2758202461236E-05
(PID.TID 0000.0001) %MON advcfl_wvel_max              =   5.2815774404543E-05
(PID.TID 0000.0001) %MON advcfl_W_hf_max              =   3.9990736634274E-05
(PID.TID 0000.0001) %MON pe_b_mean                    =  -1.0911206028655E-04
(PID.TID 0000.0001) %MON ke_max                       =   3.8099462720146E-05
(PID.TID 0000.0001) %MON ke_mean                      =   9.7470589719769E-06
(PID.TID 0000.0001) %MON ke_vol                       =   5.6340000000000E+16
(PID.TID 0000.0001) %MON vort_r_min                   =  -2.0406375914407E-08
(PID.TID 0000.0001) %MON vort_r_max                   =   2.0409779169924E-08
(PID.TID 0000.0001) %MON vort_a_mean                  =   1.0000000000000E-04
(PID.TID 0000.0001) %MON vort_a_sd                    =   8.8415537498721E-09
(PID.TID 0000.0001) %MON vort_p_mean                  =   1.0398839738941E-04
(PID.TID 0000.0001) %MON vort_p_sd                    =   3.0798697768972E-05
(PID.TID 0000.0001) %MON surfExpan_theta_mean         =  -5.6561795748249E-09
(PID.TID 0000.0001) %MON surfExpan_salt_mean          =  -1.0050481458399E-20
(PID.TID 0000.0001) // =======================================================
(PID.TID 0000.0001) // End MONITOR dynamic field statistics
(PID.TID 0000.0001) // =======================================================
 cg2d: Sum(rhs),rhsMax =  -1.21502807814977E-12  1.66565240094487E+00
(PID.TID 0000.0001)                    cg2d_init_res =    8.25037543686478E-01
(PID.TID 0000.0001)                       cg2d_iters =    33
(PID.TID 0000.0001)                         cg2d_res =    4.63896898125502E-14
(PID.TID 0000.0001) // =======================================================
(PID.TID 0000.0001) // Begin MONITOR dynamic field statistics
(PID.TID 0000.0001) // =======================================================
(PID.TID 0000.0001) %MON time_tsnumber                =                    36
(PID.TID 0000.0001) %MON time_secondsf                =   4.3200000000000E+04
(PID.TID 0000.0001) %MON dynstat_eta_max              =   4.2668205724696E-01
(PID.TID 0000.0001) %MON dynstat_eta_min              =  -4.2669212672411E-01
(PID.TID 0000.0001) %MON dynstat_eta_mean             =   1.8525914093007E-16
(PID.TID 0000.0001) %MON dynstat_eta_sd               =   1.8793709145107E-01
(PID.TID 0000.0001) %MON dynstat_eta_del2             =   1.8682062432144E-03
(PID.TID 0000.0001) %MON dynstat_uvel_max             =   8.2461717800945E-03
(PID.TID 0000.0001) %MON dynstat_uvel_min             =  -8.2461717800945E-03
(PID.TID 0000.0001) %MON dynstat_uvel_mean            =   4.6030864757070E-19
(PID.TID 0000.0001) %MON dynstat_uvel_sd              =   3.3045394161308E-03
(PID.TID 0000.0001) %MON dynstat_uvel_del2            =   3.9113676948313E-05
(PID.TID 0000.0001) %MON dynstat_vvel_max             =   8.2465330706627E-03
(PID.TID 0000.0001) %MON dynstat_vvel_min             =  -8.2465330706628E-03
(PID.TID 0000.0001) %MON dynstat_vvel_mean            =  -9.9143401015228E-19
(PID.TID 0000.0001) %MON dynstat_vvel_sd              =   3.3046636097592E-03
(PID.TID 0000.0001) %MON dynstat_vvel_del2            =   3.9108816335986E-05
(PID.TID 0000.0001) %MON dynstat_wvel_max             =   1.3015597098000E-05
(PID.TID 0000.0001) %MON dynstat_wvel_min             =  -1.3016205744136E-05
(PID.TID 0000.0001) %MON dynstat_wvel_mean            =   1.5476230095340E-22
(PID.TID 0000.0001) %MON dynstat_wvel_sd              =   3.4721893966110E-06
(PID.TID 0000.0001) %MON dynstat_wvel_del2            =   3.4613583143483E-08
(PID.TID 0000.0001) %MON dynstat_theta_max            =   1.9985881794185E+01
(PID.TID 0000.0001) %MON dynstat_theta_min            =   6.0032433107033E+00
(PID.TID 0000.0001) %MON dynstat_theta_mean           =   1.1000000068385E+01
(PID.TID 0000.0001) %MON dynstat_theta_sd             =   5.3765174493490E+00
(PID.TID 0000.0001) %MON dynstat_theta_del2           =   8.4446880301631E-06
(PID.TID 0000.0001) %MON dynstat_salt_max             =   1.0000000000000E+01
(PID.TID 0000.0001) %MON dynstat_salt_min             =   1.0000000000000E+01
(PID.TID 0000.0001) %MON dynstat_salt_mean            =   1.0000000000000E+01
(PID.TID 0000.0001) %MON dynstat_salt_sd              =   0.0000000000000E+00
(PID.TID 0000.0001) %MON dynstat_salt_del2            =   0.0000000000000E+00
(PID.TID 0000.0001) %MON advcfl_uvel_max              =   9.8954061361134E-05
(PID.TID 0000.0001) %MON advcfl_vvel_max              =   9.8958396847954E-05
(PID.TID 0000.0001) %MON advcfl_wvel_max              =   6.2477787571853E-05
(PID.TID 0000.0001) %MON advcfl_W_hf_max              =   4.7263877404110E-05
(PID.TID 0000.0001) %MON pe_b_mean                    =  -1.1019586215671E-04
(PID.TID 0000.0001) %MON ke_max                       =   4.3061074622250E-05
(PID.TID 0000.0001) %MON ke_mean                      =   1.0691671575486E-05
(PID.TID 0000.0001) %MON ke_vol                       =   5.6340000000000E+16
(PID.TID 0000.0001) %MON vort_r_min                   =  -2.1135938355347E-08
(PID.TID 0000.0001) %MON vort_r_max                   =   2.1139590330652E-08
(PID.TID 0000.0001) %MON vort_a_mean                  =   1.0000000000000E-04
(PID.TID 0000.0001) %MON vort_a_sd                    =   9.1183994786267E-09
(PID.TID 0000.0001) %MON vort_p_mean                  =   1.0398839738941E-04
(PID.TID 0000.0001) %MON vort_p_sd                    =   3.0798697849801E-05
(PID.TID 0000.0001) %MON surfExpan_theta_mean         =  -6.9620711470194E-09
(PID.TID 0000.0001) %MON surfExpan_salt_mean          =   5.8186997917048E-21
(PID.TID 0000.0001) // =======================================================
(PID.TID 0000.0001) // End MONITOR dynamic field statistics
(PID.TID 0000.0001) // =======================================================
 cg2d: Sum(rhs),rhsMax =  -9.76996261670138E-13  1.72409307521832E+00
(PID.TID 0000.0001)                    cg2d_init_res =    8.17160699328070E-01
(PID.TID 0000.0001)                       cg2d_iters =    33
(PID.TID 0000.0001)                         cg2d_res =    5.04741037251065E-14
(PID.TID 0000.0001) // =======================================================
(PID.TID 0000.0001) // Begin MONITOR dynamic field statistics
(PID.TID 0000.0001) // =======================================================
(PID.TID 0000.0001) %MON time_tsnumber                =                    37
(PID.TID 0000.0001) %MON time_secondsf                =   4.4400000000000E+04
(PID.TID 0000.0001) %MON dynstat_eta_max              =   4.4155303163953E-01
(PID.TID 0000.0001) %MON dynstat_eta_min              =  -4.4156380094529E-01
(PID.TID 0000.0001) %MON dynstat_eta_mean             =   1.6251774937877E-16
(PID.TID 0000.0001) %MON dynstat_eta_sd               =   1.9403468524302E-01
(PID.TID 0000.0001) %MON dynstat_eta_del2             =   1.9279625721866E-03
(PID.TID 0000.0001) %MON dynstat_uvel_max             =   8.4826672482778E-03
(PID.TID 0000.0001) %MON dynstat_uvel_min             =  -8.4826672482778E-03
(PID.TID 0000.0001) %MON dynstat_uvel_mean            =   2.8326686004351E-19
(PID.TID 0000.0001) %MON dynstat_uvel_sd              =   3.4284287063831E-03
(PID.TID 0000.0001) %MON dynstat_uvel_del2            =   4.0556907580427E-05
(PID.TID 0000.0001) %MON dynstat_vvel_max             =   8.4831430045376E-03
(PID.TID 0000.0001) %MON dynstat_vvel_min             =  -8.4831430045378E-03
(PID.TID 0000.0001) %MON dynstat_vvel_mean            =  -7.0816715010877E-19
(PID.TID 0000.0001) %MON dynstat_vvel_sd              =   3.4285578542772E-03
(PID.TID 0000.0001) %MON dynstat_vvel_del2            =   4.0551529536398E-05
(PID.TID 0000.0001) %MON dynstat_wvel_max             =   1.3115211087287E-05
(PID.TID 0000.0001) %MON dynstat_wvel_min             =  -1.3115716795854E-05
(PID.TID 0000.0001) %MON dynstat_wvel_mean            =  -1.0833361066738E-21
(PID.TID 0000.0001) %MON dynstat_wvel_sd              =   3.5670083622424E-06
(PID.TID 0000.0001) %MON dynstat_wvel_del2            =   3.5348970800686E-08
(PID.TID 0000.0001) %MON dynstat_theta_max            =   1.9985525489637E+01
(PID.TID 0000.0001) %MON dynstat_theta_min            =   6.0033308859563E+00
(PID.TID 0000.0001) %MON dynstat_theta_mean           =   1.1000000073032E+01
(PID.TID 0000.0001) %MON dynstat_theta_sd             =   5.3762777138588E+00
(PID.TID 0000.0001) %MON dynstat_theta_del2           =   8.7537439346812E-06
(PID.TID 0000.0001) %MON dynstat_salt_max             =   1.0000000000000E+01
(PID.TID 0000.0001) %MON dynstat_salt_min             =   1.0000000000000E+01
(PID.TID 0000.0001) %MON dynstat_salt_mean            =   1.0000000000000E+01
(PID.TID 0000.0001) %MON dynstat_salt_sd              =   0.0000000000000E+00
(PID.TID 0000.0001) %MON dynstat_salt_del2            =   0.0000000000000E+00
(PID.TID 0000.0001) %MON advcfl_uvel_max              =   1.0179200697933E-04
(PID.TID 0000.0001) %MON advcfl_vvel_max              =   1.0179771605445E-04
(PID.TID 0000.0001) %MON advcfl_wvel_max              =   6.2955440620098E-05
(PID.TID 0000.0001) %MON advcfl_W_hf_max              =   4.7640839944124E-05
(PID.TID 0000.0001) %MON pe_b_mean                    =  -1.1109769841481E-04
(PID.TID 0000.0001) %MON ke_max                       =   4.6956458830895E-05
(PID.TID 0000.0001) %MON ke_mean                      =   1.1508375405529E-05
(PID.TID 0000.0001) %MON ke_vol                       =   5.6340000000000E+16
(PID.TID 0000.0001) %MON vort_r_min                   =  -2.1908155875443E-08
(PID.TID 0000.0001) %MON vort_r_max                   =   2.1912089000488E-08
(PID.TID 0000.0001) %MON vort_a_mean                  =   1.0000000000000E-04
(PID.TID 0000.0001) %MON vort_a_sd                    =   9.4239378957600E-09
(PID.TID 0000.0001) %MON vort_p_mean                  =   1.0398839738941E-04
(PID.TID 0000.0001) %MON vort_p_sd                    =   3.0798697946346E-05
(PID.TID 0000.0001) %MON surfExpan_theta_mean         =  -7.2785160838468E-09
(PID.TID 0000.0001) %MON surfExpan_salt_mean          =   2.1158908333472E-21
(PID.TID 0000.0001) // =======================================================
(PID.TID 0000.0001) // End MONITOR dynamic field statistics
(PID.TID 0000.0001) // =======================================================
 cg2d: Sum(rhs),rhsMax =  -1.10311759726756E-12  1.77490277980756E+00
(PID.TID 0000.0001)                    cg2d_init_res =    7.18461182496589E-01
(PID.TID 0000.0001)                       cg2d_iters =    33
(PID.TID 0000.0001)                         cg2d_res =    5.12872807248330E-14
(PID.TID 0000.0001) // =======================================================
(PID.TID 0000.0001) // Begin MONITOR dynamic field statistics
(PID.TID 0000.0001) // =======================================================
(PID.TID 0000.0001) %MON time_tsnumber                =                    38
(PID.TID 0000.0001) %MON time_secondsf                =   4.5600000000000E+04
(PID.TID 0000.0001) %MON dynstat_eta_max              =   4.5446715990890E-01
(PID.TID 0000.0001) %MON dynstat_eta_min              =  -4.5447864471853E-01
(PID.TID 0000.0001) %MON dynstat_eta_mean             =   1.9191515796947E-16
(PID.TID 0000.0001) %MON dynstat_eta_sd               =   1.9936607902451E-01
(PID.TID 0000.0001) %MON dynstat_eta_del2             =   1.9814559195700E-03
(PID.TID 0000.0001) %MON dynstat_uvel_max             =   8.4520504981140E-03
(PID.TID 0000.0001) %MON dynstat_uvel_min             =  -8.4520504981140E-03
(PID.TID 0000.0001) %MON dynstat_uvel_mean            =  -5.6653372008702E-19
(PID.TID 0000.0001) %MON dynstat_uvel_sd              =   3.5156300007175E-03
(PID.TID 0000.0001) %MON dynstat_uvel_del2            =   4.1467083609618E-05
(PID.TID 0000.0001) %MON dynstat_vvel_max             =   8.4526133672032E-03
(PID.TID 0000.0001) %MON dynstat_vvel_min             =  -8.4526133672031E-03
(PID.TID 0000.0001) %MON dynstat_vvel_mean            =  -2.5494017403916E-18
(PID.TID 0000.0001) %MON dynstat_vvel_sd              =   3.5157493788819E-03
(PID.TID 0000.0001) %MON dynstat_vvel_del2            =   4.1461563961154E-05
(PID.TID 0000.0001) %MON dynstat_wvel_max             =   1.1513822707166E-05
(PID.TID 0000.0001) %MON dynstat_wvel_min             =  -1.1514211683990E-05
(PID.TID 0000.0001) %MON dynstat_wvel_mean            =  -3.8690575238349E-23
(PID.TID 0000.0001) %MON dynstat_wvel_sd              =   3.2485330735990E-06
(PID.TID 0000.0001) %MON dynstat_wvel_del2            =   3.1830350383255E-08
(PID.TID 0000.0001) %MON dynstat_theta_max            =   1.9985159367123E+01
(PID.TID 0000.0001) %MON dynstat_theta_min            =   6.0034191155792E+00
(PID.TID 0000.0001) %MON dynstat_theta_mean           =   1.1000000077513E+01
(PID.TID 0000.0001) %MON dynstat_theta_sd             =   5.3760380030452E+00
(PID.TID 0000.0001) %MON dynstat_theta_del2           =   9.0461943710639E-06
(PID.TID 0000.0001) %MON dynstat_salt_max             =   1.0000000000000E+01
(PID.TID 0000.0001) %MON dynstat_salt_min             =   1.0000000000000E+01
(PID.TID 0000.0001) %MON dynstat_salt_mean            =   1.0000000000000E+01
(PID.TID 0000.0001) %MON dynstat_salt_sd              =   0.0000000000000E+00
(PID.TID 0000.0001) %MON dynstat_salt_del2            =   0.0000000000000E+00
(PID.TID 0000.0001) %MON advcfl_uvel_max              =   1.0142460597737E-04
(PID.TID 0000.0001) %MON advcfl_vvel_max              =   1.0143136040644E-04
(PID.TID 0000.0001) %MON advcfl_wvel_max              =   5.5268216083152E-05
(PID.TID 0000.0001) %MON advcfl_W_hf_max              =   4.1886091587687E-05
(PID.TID 0000.0001) %MON pe_b_mean                    =  -1.1173451041586E-04
(PID.TID 0000.0001) %MON ke_max                       =   4.9575947795858E-05
(PID.TID 0000.0001) %MON ke_mean                      =   1.2101201309172E-05
(PID.TID 0000.0001) %MON ke_vol                       =   5.6340000000000E+16
(PID.TID 0000.0001) %MON vort_r_min                   =  -2.2613006315162E-08
(PID.TID 0000.0001) %MON vort_r_max                   =   2.2617208576856E-08
(PID.TID 0000.0001) %MON vort_a_mean                  =   1.0000000000000E-04
(PID.TID 0000.0001) %MON vort_a_sd                    =   9.7048987265181E-09
(PID.TID 0000.0001) %MON vort_p_mean                  =   1.0398839738941E-04
(PID.TID 0000.0001) %MON vort_p_sd                    =   3.0798698035077E-05
(PID.TID 0000.0001) %MON surfExpan_theta_mean         =  -6.5741053254290E-09
(PID.TID 0000.0001) %MON surfExpan_salt_mean          =   0.0000000000000E+00
(PID.TID 0000.0001) // =======================================================
(PID.TID 0000.0001) // End MONITOR dynamic field statistics
(PID.TID 0000.0001) // =======================================================
 cg2d: Sum(rhs),rhsMax =  -9.69890834312537E-13  1.81224880027377E+00
(PID.TID 0000.0001)                    cg2d_init_res =    5.67116710117611E-01
(PID.TID 0000.0001)                       cg2d_iters =    33
(PID.TID 0000.0001)                         cg2d_res =    4.94245357556212E-14
(PID.TID 0000.0001) // =======================================================
(PID.TID 0000.0001) // Begin MONITOR dynamic field statistics
(PID.TID 0000.0001) // =======================================================
(PID.TID 0000.0001) %MON time_tsnumber                =                    39
(PID.TID 0000.0001) %MON time_secondsf                =   4.6800000000000E+04
(PID.TID 0000.0001) %MON dynstat_eta_max              =   4.6394582332626E-01
(PID.TID 0000.0001) %MON dynstat_eta_min              =  -4.6395799740947E-01
(PID.TID 0000.0001) %MON dynstat_eta_mean             =   1.5669373446929E-16
(PID.TID 0000.0001) %MON dynstat_eta_sd               =   2.0330876332929E-01
(PID.TID 0000.0001) %MON dynstat_eta_del2             =   2.0221673600303E-03
(PID.TID 0000.0001) %MON dynstat_uvel_max             =   8.1853752632883E-03
(PID.TID 0000.0001) %MON dynstat_uvel_min             =  -8.1853752632883E-03
(PID.TID 0000.0001) %MON dynstat_uvel_mean            =   0.0000000000000E+00
(PID.TID 0000.0001) %MON dynstat_uvel_sd              =   3.5691743280413E-03
(PID.TID 0000.0001) %MON dynstat_uvel_del2            =   4.1933046953493E-05
(PID.TID 0000.0001) %MON dynstat_vvel_max             =   8.1860870391662E-03
(PID.TID 0000.0001) %MON dynstat_vvel_min             =  -8.1860870391661E-03
(PID.TID 0000.0001) %MON dynstat_vvel_mean            =   7.0816715010877E-19
(PID.TID 0000.0001) %MON dynstat_vvel_sd              =   3.5692720746425E-03
(PID.TID 0000.0001) %MON dynstat_vvel_del2            =   4.1927680039799E-05
(PID.TID 0000.0001) %MON dynstat_wvel_max             =   8.6787796706264E-06
(PID.TID 0000.0001) %MON dynstat_wvel_min             =  -8.6790297608034E-06
(PID.TID 0000.0001) %MON dynstat_wvel_mean            =  -1.1220266819121E-21
(PID.TID 0000.0001) %MON dynstat_wvel_sd              =   2.6553228266961E-06
(PID.TID 0000.0001) %MON dynstat_wvel_del2            =   2.5173262355995E-08
(PID.TID 0000.0001) %MON dynstat_theta_max            =   1.9984769877684E+01
(PID.TID 0000.0001) %MON dynstat_theta_min            =   6.0035089052992E+00
(PID.TID 0000.0001) %MON dynstat_theta_mean           =   1.1000000081204E+01
(PID.TID 0000.0001) %MON dynstat_theta_sd             =   5.3757983158802E+00
(PID.TID 0000.0001) %MON dynstat_theta_del2           =   9.2903756602444E-06
(PID.TID 0000.0001) %MON dynstat_salt_max             =   1.0000000000000E+01
(PID.TID 0000.0001) %MON dynstat_salt_min             =   1.0000000000000E+01
(PID.TID 0000.0001) %MON dynstat_salt_mean            =   1.0000000000000E+01
(PID.TID 0000.0001) %MON dynstat_salt_sd              =   0.0000000000000E+00
(PID.TID 0000.0001) %MON dynstat_salt_del2            =   0.0000000000000E+00
(PID.TID 0000.0001) %MON advcfl_uvel_max              =   9.8224503159460E-05
(PID.TID 0000.0001) %MON advcfl_vvel_max              =   9.8233044469994E-05
(PID.TID 0000.0001) %MON advcfl_wvel_max              =   4.1659342851857E-05
(PID.TID 0000.0001) %MON advcfl_W_hf_max              =   3.1661748834860E-05
(PID.TID 0000.0001) %MON pe_b_mean                    =  -1.1212337729618E-04
(PID.TID 0000.0001) %MON ke_max                       =   5.1040130725843E-05
(PID.TID 0000.0001) %MON ke_mean                      =   1.2472537826915E-05
(PID.TID 0000.0001) %MON ke_vol                       =   5.6340000000000E+16
(PID.TID 0000.0001) %MON vort_r_min                   =  -2.3161914796597E-08
(PID.TID 0000.0001) %MON vort_r_max                   =   2.3166331229525E-08
(PID.TID 0000.0001) %MON vort_a_mean                  =   1.0000000000000E-04
(PID.TID 0000.0001) %MON vort_a_sd                    =   9.9229205609821E-09
(PID.TID 0000.0001) %MON vort_p_mean                  =   1.0398839738941E-04
(PID.TID 0000.0001) %MON vort_p_sd                    =   3.0798698098514E-05
(PID.TID 0000.0001) %MON surfExpan_theta_mean         =  -4.9878372417894E-09
(PID.TID 0000.0001) %MON surfExpan_salt_mean          =  -8.4635633333888E-21
(PID.TID 0000.0001) // =======================================================
(PID.TID 0000.0001) // End MONITOR dynamic field statistics
(PID.TID 0000.0001) // =======================================================
 cg2d: Sum(rhs),rhsMax =  -8.59756710269721E-13  1.83274269912867E+00
(PID.TID 0000.0001)                    cg2d_init_res =    4.11763515168677E-01
(PID.TID 0000.0001)                       cg2d_iters =    33
(PID.TID 0000.0001)                         cg2d_res =    4.61618479279144E-14
(PID.TID 0000.0001) // =======================================================
(PID.TID 0000.0001) // Begin MONITOR dynamic field statistics
(PID.TID 0000.0001) // =======================================================
(PID.TID 0000.0001) %MON time_tsnumber                =                    40
(PID.TID 0000.0001) %MON time_secondsf                =   4.8000000000000E+04
(PID.TID 0000.0001) %MON dynstat_eta_max              =   4.6912941040309E-01
(PID.TID 0000.0001) %MON dynstat_eta_min              =  -4.6914216350942E-01
(PID.TID 0000.0001) %MON dynstat_eta_mean             =   9.3461572594959E-17
(PID.TID 0000.0001) %MON dynstat_eta_sd               =   2.0549875078407E-01
(PID.TID 0000.0001) %MON dynstat_eta_del2             =   2.0459240676504E-03
(PID.TID 0000.0001) %MON dynstat_uvel_max             =   7.7414910827113E-03
(PID.TID 0000.0001) %MON dynstat_uvel_min             =  -7.7414910827112E-03
(PID.TID 0000.0001) %MON dynstat_uvel_mean            =   2.0536847353154E-18
(PID.TID 0000.0001) %MON dynstat_uvel_sd              =   3.5970578305531E-03
(PID.TID 0000.0001) %MON dynstat_uvel_del2            =   4.2141844840913E-05
(PID.TID 0000.0001) %MON dynstat_vvel_max             =   7.7421558729373E-03
(PID.TID 0000.0001) %MON dynstat_vvel_min             =  -7.7421558729372E-03
(PID.TID 0000.0001) %MON dynstat_vvel_mean            =  -6.3735043509790E-19
(PID.TID 0000.0001) %MON dynstat_vvel_sd              =   3.5971282187659E-03
(PID.TID 0000.0001) %MON dynstat_vvel_del2            =   4.2136846062193E-05
(PID.TID 0000.0001) %MON dynstat_wvel_max             =   6.4209024089746E-06
(PID.TID 0000.0001) %MON dynstat_wvel_min             =  -6.4220012872673E-06
(PID.TID 0000.0001) %MON dynstat_wvel_mean            =   9.6726438095872E-22
(PID.TID 0000.0001) %MON dynstat_wvel_sd              =   2.0094715946495E-06
(PID.TID 0000.0001) %MON dynstat_wvel_del2            =   1.6854455002819E-08
(PID.TID 0000.0001) %MON dynstat_theta_max            =   1.9984348109150E+01
(PID.TID 0000.0001) %MON dynstat_theta_min            =   6.0036008512880E+00
(PID.TID 0000.0001) %MON dynstat_theta_mean           =   1.1000000083626E+01
(PID.TID 0000.0001) %MON dynstat_theta_sd             =   5.3755586515921E+00
(PID.TID 0000.0001) %MON dynstat_theta_del2           =   9.4607450747272E-06
(PID.TID 0000.0001) %MON dynstat_salt_max             =   1.0000000000000E+01
(PID.TID 0000.0001) %MON dynstat_salt_min             =   1.0000000000000E+01
(PID.TID 0000.0001) %MON dynstat_salt_mean            =   1.0000000000000E+01
(PID.TID 0000.0001) %MON dynstat_salt_sd              =   0.0000000000000E+00
(PID.TID 0000.0001) %MON dynstat_salt_del2            =   0.0000000000000E+00
(PID.TID 0000.0001) %MON advcfl_uvel_max              =   9.2897892992535E-05
(PID.TID 0000.0001) %MON advcfl_vvel_max              =   9.2905870475247E-05
(PID.TID 0000.0001) %MON advcfl_wvel_max              =   3.0825606178883E-05
(PID.TID 0000.0001) %MON advcfl_W_hf_max              =   2.4000310854438E-05
(PID.TID 0000.0001) %MON pe_b_mean                    =  -1.1232460705620E-04
(PID.TID 0000.0001) %MON ke_max                       =   5.1599360615404E-05
(PID.TID 0000.0001) %MON ke_mean                      =   1.2668078720763E-05
(PID.TID 0000.0001) %MON ke_vol                       =   5.6340000000000E+16
(PID.TID 0000.0001) %MON vort_r_min                   =  -2.3500901436635E-08
(PID.TID 0000.0001) %MON vort_r_max                   =   2.3505755815307E-08
(PID.TID 0000.0001) %MON vort_a_mean                  =   1.0000000000000E-04
(PID.TID 0000.0001) %MON vort_a_sd                    =   1.0055091340577E-08
(PID.TID 0000.0001) %MON vort_p_mean                  =   1.0398839738941E-04
(PID.TID 0000.0001) %MON vort_p_sd                    =   3.0798698125960E-05
(PID.TID 0000.0001) %MON surfExpan_theta_mean         =  -2.8201804986756E-09
(PID.TID 0000.0001) %MON surfExpan_salt_mean          =   8.4635633333888E-21
(PID.TID 0000.0001) // =======================================================
(PID.TID 0000.0001) // End MONITOR dynamic field statistics
(PID.TID 0000.0001) // =======================================================
(PID.TID 0000.0001) %CHECKPOINT        40 ckptA
(PID.TID 0000.0001)   Seconds in section "ALL                    [THE_MODEL_MAIN]":
(PID.TID 0000.0001)           User time:  5.66000008
(PID.TID 0000.0001)         System time:  0.0900000036
(PID.TID 0000.0001)     Wall clock time:  6.01161599
(PID.TID 0000.0001)          No. starts: 1
(PID.TID 0000.0001)           No. stops: 1
(PID.TID 0000.0001)   Seconds in section "INITIALISE_FIXED       [THE_MODEL_MAIN]":
(PID.TID 0000.0001)           User time:  0.0499999989
(PID.TID 0000.0001)         System time:  0.0299999993
(PID.TID 0000.0001)     Wall clock time:  0.136812925
(PID.TID 0000.0001)          No. starts: 1
(PID.TID 0000.0001)           No. stops: 1
(PID.TID 0000.0001)   Seconds in section "THE_MAIN_LOOP          [THE_MODEL_MAIN]":
(PID.TID 0000.0001)           User time:  5.57000012
(PID.TID 0000.0001)         System time:  0.040000001
(PID.TID 0000.0001)     Wall clock time:  5.77955008
(PID.TID 0000.0001)          No. starts: 1
(PID.TID 0000.0001)           No. stops: 1
(PID.TID 0000.0001)   Seconds in section "INITIALISE_VARIA    [THE_MAIN_LOOP]":
(PID.TID 0000.0001)           User time:  0.0100000016
(PID.TID 0000.0001)         System time:  0.00999999978
(PID.TID 0000.0001)     Wall clock time:  0.0183610916
(PID.TID 0000.0001)          No. starts: 1
(PID.TID 0000.0001)           No. stops: 1
(PID.TID 0000.0001)   Seconds in section "MONITOR             [THE_MAIN_LOOP]":
(PID.TID 0000.0001)           User time:  0.0300000012
(PID.TID 0000.0001)         System time:  0.
(PID.TID 0000.0001)     Wall clock time:  0.0245149136
(PID.TID 0000.0001)          No. starts: 1
(PID.TID 0000.0001)           No. stops: 1
(PID.TID 0000.0001)   Seconds in section "DO_THE_MODEL_IO     [THE_MAIN_LOOP]":
(PID.TID 0000.0001)           User time:  0.00999999791
(PID.TID 0000.0001)         System time:  0.
(PID.TID 0000.0001)     Wall clock time:  0.0515100956
(PID.TID 0000.0001)          No. starts: 1
(PID.TID 0000.0001)           No. stops: 1
(PID.TID 0000.0001)   Seconds in section "MAIN LOOP           [THE_MAIN_LOOP]":
(PID.TID 0000.0001)           User time:  5.52000012
(PID.TID 0000.0001)         System time:  0.0300000012
(PID.TID 0000.0001)     Wall clock time:  5.68501282
(PID.TID 0000.0001)          No. starts: 1
(PID.TID 0000.0001)           No. stops: 1
(PID.TID 0000.0001)   Seconds in section "FORWARD_STEP        [THE_MAIN_LOOP]":
(PID.TID 0000.0001)           User time:  5.52000012
(PID.TID 0000.0001)         System time:  0.0300000012
(PID.TID 0000.0001)     Wall clock time:  5.68379521
(PID.TID 0000.0001)          No. starts: 40
(PID.TID 0000.0001)           No. stops: 40
(PID.TID 0000.0001)   Seconds in section "EXTERNAL_FIELDS_LOAD[FORWARD_STEP]":
(PID.TID 0000.0001)           User time:  0.00999999046
(PID.TID 0000.0001)         System time:  0.
(PID.TID 0000.0001)     Wall clock time:  0.00119972229
(PID.TID 0000.0001)          No. starts: 40
(PID.TID 0000.0001)           No. stops: 40
(PID.TID 0000.0001)   Seconds in section "DO_ATMOSPHERIC_PHYS [FORWARD_STEP]":
(PID.TID 0000.0001)           User time:  0.
(PID.TID 0000.0001)         System time:  0.
(PID.TID 0000.0001)     Wall clock time:  0.00118279457
(PID.TID 0000.0001)          No. starts: 40
(PID.TID 0000.0001)           No. stops: 40
(PID.TID 0000.0001)   Seconds in section "DO_OCEANIC_PHYS     [FORWARD_STEP]":
(PID.TID 0000.0001)           User time:  0.0100002289
(PID.TID 0000.0001)         System time:  0.
(PID.TID 0000.0001)     Wall clock time:  0.0570209026
(PID.TID 0000.0001)          No. starts: 40
(PID.TID 0000.0001)           No. stops: 40
(PID.TID 0000.0001)   Seconds in section "THERMODYNAMICS      [FORWARD_STEP]":
(PID.TID 0000.0001)           User time:  0.910000935
(PID.TID 0000.0001)         System time:  0.
(PID.TID 0000.0001)     Wall clock time:  0.882974386
(PID.TID 0000.0001)          No. starts: 40
(PID.TID 0000.0001)           No. stops: 40
(PID.TID 0000.0001)   Seconds in section "DYNAMICS            [FORWARD_STEP]":
(PID.TID 0000.0001)           User time:  1.40000002
(PID.TID 0000.0001)         System time:  0.
(PID.TID 0000.0001)     Wall clock time:  1.40827632
(PID.TID 0000.0001)          No. starts: 40
(PID.TID 0000.0001)           No. stops: 40
(PID.TID 0000.0001)   Seconds in section "SOLVE_FOR_PRESSURE  [FORWARD_STEP]":
(PID.TID 0000.0001)           User time:  1.91000153
(PID.TID 0000.0001)         System time:  0.
(PID.TID 0000.0001)     Wall clock time:  1.89755416
(PID.TID 0000.0001)          No. starts: 40
(PID.TID 0000.0001)           No. stops: 40
(PID.TID 0000.0001)   Seconds in section "UV_CORRECTION_STEP  [FORWARD_STEP]":
(PID.TID 0000.0001)           User time:  0.119999319
(PID.TID 0000.0001)         System time:  0.
(PID.TID 0000.0001)     Wall clock time:  0.120731592
(PID.TID 0000.0001)          No. starts: 40
(PID.TID 0000.0001)           No. stops: 40
(PID.TID 0000.0001)   Seconds in section "TS_CORRECTION_STEP  [FORWARD_STEP]":
(PID.TID 0000.0001)           User time:  0.0299999714
(PID.TID 0000.0001)         System time:  0.
(PID.TID 0000.0001)     Wall clock time:  0.0330061913
(PID.TID 0000.0001)          No. starts: 40
(PID.TID 0000.0001)           No. stops: 40
(PID.TID 0000.0001)   Seconds in section "BLOCKING_EXCHANGES  [FORWARD_STEP]":
(PID.TID 0000.0001)           User time:  0.0499997139
(PID.TID 0000.0001)         System time:  0.
(PID.TID 0000.0001)     Wall clock time:  0.0540585518
(PID.TID 0000.0001)          No. starts: 40
(PID.TID 0000.0001)           No. stops: 40
(PID.TID 0000.0001)   Seconds in section "DO_STATEVARS_DIAGS  [FORWARD_STEP]":
(PID.TID 0000.0001)           User time:  0.
(PID.TID 0000.0001)         System time:  0.
(PID.TID 0000.0001)     Wall clock time:  0.00120854378
(PID.TID 0000.0001)          No. starts: 40
(PID.TID 0000.0001)           No. stops: 40
(PID.TID 0000.0001)   Seconds in section "MONITOR             [FORWARD_STEP]":
(PID.TID 0000.0001)           User time:  0.999998242
(PID.TID 0000.0001)         System time:  0.
(PID.TID 0000.0001)     Wall clock time:  0.979156733
(PID.TID 0000.0001)          No. starts: 40
(PID.TID 0000.0001)           No. stops: 40
(PID.TID 0000.0001)   Seconds in section "DO_THE_MODEL_IO     [FORWARD_STEP]":
(PID.TID 0000.0001)           User time:  0.0100002289
(PID.TID 0000.0001)         System time:  0.0100000016
(PID.TID 0000.0001)     Wall clock time:  0.0597314835
(PID.TID 0000.0001)          No. starts: 40
(PID.TID 0000.0001)           No. stops: 40
(PID.TID 0000.0001)   Seconds in section "WRITE_CHECKPOINT    [FORWARD_STEP]":
(PID.TID 0000.0001)           User time:  0.0699999332
(PID.TID 0000.0001)         System time:  0.0199999996
(PID.TID 0000.0001)     Wall clock time:  0.170793295
(PID.TID 0000.0001)          No. starts: 40
(PID.TID 0000.0001)           No. stops: 40
(PID.TID 0000.0001)   Seconds in section "WRITE_CHECKPOINT       [THE_MODEL_MAIN]":
(PID.TID 0000.0001)           User time:  0.0399999619
(PID.TID 0000.0001)         System time:  0.0200000033
(PID.TID 0000.0001)     Wall clock time:  0.0951149464
(PID.TID 0000.0001)          No. starts: 1
(PID.TID 0000.0001)           No. stops: 1
(PID.TID 0000.0001) // ======================================================
(PID.TID 0000.0001) // Tile <-> Tile communication statistics
(PID.TID 0000.0001) // ======================================================
(PID.TID 0000.0001) // o Tile number: 000001
(PID.TID 0000.0001) //         No. X exchanges =              0
(PID.TID 0000.0001) //            Max. X spins =              0
(PID.TID 0000.0001) //            Min. X spins =     1000000000
(PID.TID 0000.0001) //          Total. X spins =              0
(PID.TID 0000.0001) //            Avg. X spins =       0.00E+00
(PID.TID 0000.0001) //         No. Y exchanges =              0
(PID.TID 0000.0001) //            Max. Y spins =              0
(PID.TID 0000.0001) //            Min. Y spins =     1000000000
(PID.TID 0000.0001) //          Total. Y spins =              0
(PID.TID 0000.0001) //            Avg. Y spins =       0.00E+00
(PID.TID 0000.0001) // o Tile number: 000002
(PID.TID 0000.0001) //         No. X exchanges =              0
(PID.TID 0000.0001) //            Max. X spins =              0
(PID.TID 0000.0001) //            Min. X spins =     1000000000
(PID.TID 0000.0001) //          Total. X spins =              0
(PID.TID 0000.0001) //            Avg. X spins =       0.00E+00
(PID.TID 0000.0001) //         No. Y exchanges =              0
(PID.TID 0000.0001) //            Max. Y spins =              0
(PID.TID 0000.0001) //            Min. Y spins =     1000000000
(PID.TID 0000.0001) //          Total. Y spins =              0
(PID.TID 0000.0001) //            Avg. Y spins =       0.00E+00
(PID.TID 0000.0001) // o Tile number: 000003
(PID.TID 0000.0001) //         No. X exchanges =              0
(PID.TID 0000.0001) //            Max. X spins =              0
(PID.TID 0000.0001) //            Min. X spins =     1000000000
(PID.TID 0000.0001) //          Total. X spins =              0
(PID.TID 0000.0001) //            Avg. X spins =       0.00E+00
(PID.TID 0000.0001) //         No. Y exchanges =              0
(PID.TID 0000.0001) //            Max. Y spins =              0
(PID.TID 0000.0001) //            Min. Y spins =     1000000000
(PID.TID 0000.0001) //          Total. Y spins =              0
(PID.TID 0000.0001) //            Avg. Y spins =       0.00E+00
(PID.TID 0000.0001) // o Tile number: 000004
(PID.TID 0000.0001) //         No. X exchanges =              0
(PID.TID 0000.0001) //            Max. X spins =              0
(PID.TID 0000.0001) //            Min. X spins =     1000000000
(PID.TID 0000.0001) //          Total. X spins =              0
(PID.TID 0000.0001) //            Avg. X spins =       0.00E+00
(PID.TID 0000.0001) //         No. Y exchanges =              0
(PID.TID 0000.0001) //            Max. Y spins =              0
(PID.TID 0000.0001) //            Min. Y spins =     1000000000
(PID.TID 0000.0001) //          Total. Y spins =              0
(PID.TID 0000.0001) //            Avg. Y spins =       0.00E+00
(PID.TID 0000.0001) // o Thread number: 000001
(PID.TID 0000.0001) //            No. barriers =          28926
(PID.TID 0000.0001) //      Max. barrier spins =              1
(PID.TID 0000.0001) //      Min. barrier spins =              1
(PID.TID 0000.0001) //     Total barrier spins =          28926
(PID.TID 0000.0001) //      Avg. barrier spins =       1.00E+00
