(PID.TID 0000.0001) 
(PID.TID 0000.0001) // ======================================================
(PID.TID 0000.0001) //                      MITgcm UV
(PID.TID 0000.0001) //                      =========
(PID.TID 0000.0001) // ======================================================
(PID.TID 0000.0001) // execution environment starting up...
(PID.TID 0000.0001) 
(PID.TID 0000.0001) // MITgcmUV version:  checkpoint63
(PID.TID 0000.0001) // Build user:        jmc
(PID.TID 0000.0001) // Build host:        baudelaire
(PID.TID 0000.0001) // Build date:        Thu Jul 14 12:34:47 EDT 2011
(PID.TID 0000.0001) 
(PID.TID 0000.0001) // =======================================================
(PID.TID 0000.0001) // Execution Environment parameter file "eedata"
(PID.TID 0000.0001) // =======================================================
(PID.TID 0000.0001) ># Example "eedata" file
(PID.TID 0000.0001) ># Lines beginning "#" are comments
(PID.TID 0000.0001) ># nTx - No. threads per process in X
(PID.TID 0000.0001) ># nTy - No. threads per process in Y
(PID.TID 0000.0001) > &EEPARMS
(PID.TID 0000.0001) > nTx=1,
(PID.TID 0000.0001) > nTy=1,
(PID.TID 0000.0001) > /
(PID.TID 0000.0001) ># Note: Some systems use & as the
(PID.TID 0000.0001) ># namelist terminator. Other systems
(PID.TID 0000.0001) ># use a / character (as shown here).
(PID.TID 0000.0001) 
(PID.TID 0000.0001) // =======================================================
(PID.TID 0000.0001) // Computational Grid Specification ( see files "SIZE.h" )
(PID.TID 0000.0001) //                                  ( and "eedata"       )
(PID.TID 0000.0001) // =======================================================
(PID.TID 0000.0001)      nPx =    1 ; /* No. processes in X */
(PID.TID 0000.0001)      nPy =    1 ; /* No. processes in Y */
(PID.TID 0000.0001)      nSx =    1 ; /* No. tiles in X per process */
(PID.TID 0000.0001)      nSy =    2 ; /* No. tiles in Y per process */
(PID.TID 0000.0001)      sNx =    1 ; /* Tile size in X */
(PID.TID 0000.0001)      sNy =   16 ; /* Tile size in Y */
(PID.TID 0000.0001)      OLx =    3 ; /* Tile overlap distance in X */
(PID.TID 0000.0001)      OLy =    3 ; /* Tile overlap distance in Y */
(PID.TID 0000.0001)      nTx =    1 ; /* No. threads in X per process */
(PID.TID 0000.0001)      nTy =    1 ; /* No. threads in Y per process */
(PID.TID 0000.0001)       Nr =   25 ; /* No. levels in the vertical   */
(PID.TID 0000.0001)       Nx =    1 ; /* Total domain size in X ( = nPx*nSx*sNx ) */
(PID.TID 0000.0001)       Ny =   32 ; /* Total domain size in Y ( = nPy*nSy*sNy ) */
(PID.TID 0000.0001)   nTiles =    2 ; /* Total no. tiles per process ( = nSx*nSy ) */
(PID.TID 0000.0001)   nProcs =    1 ; /* Total no. processes ( = nPx*nPy ) */
(PID.TID 0000.0001) nThreads =    1 ; /* Total no. threads per process ( = nTx*nTy ) */
(PID.TID 0000.0001) usingMPI =    F ; /* Flag used to control whether MPI is in use */
(PID.TID 0000.0001)                   /*  note: To execute a program with MPI calls */
(PID.TID 0000.0001)                   /*  it must be launched appropriately e.g     */
(PID.TID 0000.0001)                   /*  "mpirun -np 64 ......"                    */
(PID.TID 0000.0001) useCoupler=    F ;/* Flag used to control communications with   */
(PID.TID 0000.0001)                   /*  other model components, through a coupler */
(PID.TID 0000.0001) debugMode =    F ; /* print debug msg. (sequence of S/R calls)  */
(PID.TID 0000.0001) printMapIncludesZeros=    F ; /* print zeros in Std.Output maps */
(PID.TID 0000.0001) maxLengthPrt1D=   65 /* maxLength of 1D array printed to StdOut */
(PID.TID 0000.0001) 
(PID.TID 0000.0001) // ======================================================
(PID.TID 0000.0001) // Mapping of tiles to threads
(PID.TID 0000.0001) // ======================================================
(PID.TID 0000.0001) // -o- Thread   1, tiles (   1:   1,   1:   2)
(PID.TID 0000.0001) 
(PID.TID 0000.0001) // ======================================================
(PID.TID 0000.0001) // Tile <-> Tile connectvity table
(PID.TID 0000.0001) // ======================================================
(PID.TID 0000.0001) // Tile number: 000001 (process no. = 000001)
(PID.TID 0000.0001) //        WEST: Tile = 000001, Process = 000001, Comm = put
(PID.TID 0000.0001) //                bi = 000001, bj = 000001
(PID.TID 0000.0001) //        EAST: Tile = 000001, Process = 000001, Comm = put
(PID.TID 0000.0001) //                bi = 000001, bj = 000001
(PID.TID 0000.0001) //       SOUTH: Tile = 000002, Process = 000001, Comm = put
(PID.TID 0000.0001) //                bi = 000001, bj = 000002
(PID.TID 0000.0001) //       NORTH: Tile = 000002, Process = 000001, Comm = put
(PID.TID 0000.0001) //                bi = 000001, bj = 000002
(PID.TID 0000.0001) // Tile number: 000002 (process no. = 000001)
(PID.TID 0000.0001) //        WEST: Tile = 000002, Process = 000001, Comm = put
(PID.TID 0000.0001) //                bi = 000001, bj = 000002
(PID.TID 0000.0001) //        EAST: Tile = 000002, Process = 000001, Comm = put
(PID.TID 0000.0001) //                bi = 000001, bj = 000002
(PID.TID 0000.0001) //       SOUTH: Tile = 000001, Process = 000001, Comm = put
(PID.TID 0000.0001) //                bi = 000001, bj = 000001
(PID.TID 0000.0001) //       NORTH: Tile = 000001, Process = 000001, Comm = put
(PID.TID 0000.0001) //                bi = 000001, bj = 000001
(PID.TID 0000.0001) 
(PID.TID 0000.0001)  INI_PARMS: opening model parameter file "data"
(PID.TID 0000.0001)  OPEN_COPY_DATA_FILE: opening file data
(PID.TID 0000.0001) // =======================================================
(PID.TID 0000.0001) // Parameter file "data"
(PID.TID 0000.0001) // =======================================================
(PID.TID 0000.0001) ># ====================
(PID.TID 0000.0001) ># | Model parameters |
(PID.TID 0000.0001) ># ====================
(PID.TID 0000.0001) >#
(PID.TID 0000.0001) ># Continuous equation parameters
(PID.TID 0000.0001) > &PARM01
(PID.TID 0000.0001) > tRef=29., 28., 27., 26., 25., 24., 23., 22., 21., 20., 19., 18.,
(PID.TID 0000.0001) > 17., 16., 15., 14., 13., 12., 11., 10., 09., 07., 08., 06., 05.,
(PID.TID 0000.0001) > viscAr=2.E-4,
(PID.TID 0000.0001) > viscA4=12.E5,
(PID.TID 0000.0001) > no_slip_sides=.FALSE.,
(PID.TID 0000.0001) > no_slip_bottom=.TRUE.,
(PID.TID 0000.0001) > bottomDragLinear=1.E-3,
(PID.TID 0000.0001) >#bottomDragQuadratic=1.E-3,
(PID.TID 0000.0001) >#diffKrT=2.E-5,
(PID.TID 0000.0001) >#diffKrS=2.E-5,
(PID.TID 0000.0001) > diffKrNrT=6*1.E-2, 19*2.E-5,
(PID.TID 0000.0001) > diffKrNrS=6*1.E-2, 19*2.E-5,
(PID.TID 0000.0001) > diffKhT=0.E3,
(PID.TID 0000.0001) > diffKhS=0.E3,
(PID.TID 0000.0001) > beta=0.E-11,
(PID.TID 0000.0001) > f0  =1.E-4,
(PID.TID 0000.0001) > gravity=9.81,
(PID.TID 0000.0001) > eosType='LINEAR',
(PID.TID 0000.0001) > tAlpha=2.E-4,
(PID.TID 0000.0001) > sBeta =0.E-4,
(PID.TID 0000.0001) > rhoConst=1000.,
(PID.TID 0000.0001) > rhoNil=1000.,
(PID.TID 0000.0001) > rigidLid=.FALSE.,
(PID.TID 0000.0001) > implicitFreeSurface=.TRUE.,
(PID.TID 0000.0001) > implicitDiffusion=.TRUE.,
(PID.TID 0000.0001) > hFacMin=.1,
(PID.TID 0000.0001) > hMixCriteria=-0.1,
(PID.TID 0000.0001) >#hMixCriteria=1.5,
(PID.TID 0000.0001) > readBinaryPrec=64,
(PID.TID 0000.0001) > writeBinaryPrec=64,
(PID.TID 0000.0001) > /
(PID.TID 0000.0001) >
(PID.TID 0000.0001) ># Elliptic solver parameters
(PID.TID 0000.0001) > &PARM02
(PID.TID 0000.0001) > cg2dMaxIters=1000,
(PID.TID 0000.0001) > cg2dTargetResidual=1.E-13,
(PID.TID 0000.0001) > /
(PID.TID 0000.0001) >
(PID.TID 0000.0001) ># Time stepping parameters
(PID.TID 0000.0001) > &PARM03
(PID.TID 0000.0001) > startTime=0.,
(PID.TID 0000.0001) >#nTimeSteps=8641,
(PID.TID 0000.0001) > nTimeSteps=25,
(PID.TID 0000.0001) > deltaT=3600.,
(PID.TID 0000.0001) > cAdjFreq=-1.,
(PID.TID 0000.0001) > abEps=0.1,
(PID.TID 0000.0001) > pChkptFreq=0.,
(PID.TID 0000.0001) > chkptFreq =0.,
(PID.TID 0000.0001) > dumpFreq=2592000.,
(PID.TID 0000.0001) >#monitorFreq=864000.,
(PID.TID 0000.0001) > monitorSelect=1,
(PID.TID 0000.0001) > monitorFreq=1.,
(PID.TID 0000.0001) > /
(PID.TID 0000.0001) >
(PID.TID 0000.0001) ># Gridding parameters
(PID.TID 0000.0001) > &PARM04
(PID.TID 0000.0001) > usingCartesianGrid=.TRUE.,
(PID.TID 0000.0001) > delR= 10*20.,  24.,  29.,  35.,  42.,  51.,  61.,  74.,
(PID.TID 0000.0001) >          89., 107., 128., 155., 186., 224., 270., 325.,
(PID.TID 0000.0001) > delX=1*1.E5,
(PID.TID 0000.0001) > delY=32*1.E5,
(PID.TID 0000.0001) > /
(PID.TID 0000.0001) >
(PID.TID 0000.0001) ># Input datasets
(PID.TID 0000.0001) > &PARM05
(PID.TID 0000.0001) > hydrogThetaFile='t_ini.bin',
(PID.TID 0000.0001) > hydrogSaltFile ='s_ini.bin',
(PID.TID 0000.0001) > uVelInitFile   ='u_ini.bin',
(PID.TID 0000.0001) > bathyFile      ='topo_slp.bin',
(PID.TID 0000.0001) > /
(PID.TID 0000.0001) 
(PID.TID 0000.0001)  INI_PARMS ; starts to read PARM01
(PID.TID 0000.0001)  INI_PARMS ; read PARM01 : OK
(PID.TID 0000.0001)  INI_PARMS ; starts to read PARM02
(PID.TID 0000.0001)  INI_PARMS ; read PARM02 : OK
(PID.TID 0000.0001)  INI_PARMS ; starts to read PARM03
(PID.TID 0000.0001)  INI_PARMS ; read PARM03 : OK
(PID.TID 0000.0001)  INI_PARMS ; starts to read PARM04
(PID.TID 0000.0001)  INI_PARMS ; read PARM04 : OK
(PID.TID 0000.0001)  INI_PARMS ; starts to read PARM05
(PID.TID 0000.0001)  INI_PARMS ; read PARM05 : OK
(PID.TID 0000.0001)  INI_PARMS: finished reading file "data"
(PID.TID 0000.0001)  PACKAGES_BOOT: opening data.pkg
(PID.TID 0000.0001)  OPEN_COPY_DATA_FILE: opening file data.pkg
(PID.TID 0000.0001) // =======================================================
(PID.TID 0000.0001) // Parameter file "data.pkg"
(PID.TID 0000.0001) // =======================================================
(PID.TID 0000.0001) ># Packages
(PID.TID 0000.0001) > &PACKAGES
(PID.TID 0000.0001) >  useGMRedi=.TRUE.,
(PID.TID 0000.0001) >  useKPP=.FALSE.,
(PID.TID 0000.0001) >  useDiagnostics=.TRUE.,
(PID.TID 0000.0001) > /
(PID.TID 0000.0001) 
(PID.TID 0000.0001)  PACKAGES_BOOT: finished reading data.pkg
(PID.TID 0000.0001)  GM_READPARMS: opening data.gmredi
(PID.TID 0000.0001)  OPEN_COPY_DATA_FILE: opening file data.gmredi
(PID.TID 0000.0001) // =======================================================
(PID.TID 0000.0001) // Parameter file "data.gmredi"
(PID.TID 0000.0001) // =======================================================
(PID.TID 0000.0001) ># GM-Redi parameters
(PID.TID 0000.0001) > &GM_PARM01
(PID.TID 0000.0001) > GM_AdvForm=.TRUE.,
(PID.TID 0000.0001) > GM_useBVP = .TRUE.,
(PID.TID 0000.0001) >#GM_BVP_modeNumber=5,
(PID.TID 0000.0001) > GM_background_K=1000.,
(PID.TID 0000.0001) > GM_taper_scheme='linear',
(PID.TID 0000.0001) > GM_maxSlope    =1.E-02,
(PID.TID 0000.0001) > GM_facTrL2dz   = 0.,
(PID.TID 0000.0001) >#GM_facTrL2ML   = 5.,
(PID.TID 0000.0001) >#GM_maxTransLay = 500.,
(PID.TID 0000.0001) > GM_useSubMeso = .TRUE.,
(PID.TID 0000.0001) >#subMeso_Ceff  = 5.e-2,
(PID.TID 0000.0001) >#subMeso_LfMin = 5.e+3,
(PID.TID 0000.0001) > /
(PID.TID 0000.0001) >
(PID.TID 0000.0001) 
(PID.TID 0000.0001)  GM_READPARMS: finished reading data.gmredi
(PID.TID 0000.0001)  DIAGNOSTICS_READPARMS: opening data.diagnostics
(PID.TID 0000.0001)  OPEN_COPY_DATA_FILE: opening file data.diagnostics
(PID.TID 0000.0001) // =======================================================
(PID.TID 0000.0001) // Parameter file "data.diagnostics"
(PID.TID 0000.0001) // =======================================================
(PID.TID 0000.0001) ># Diagnostic Package Choices
(PID.TID 0000.0001) >#--------------------
(PID.TID 0000.0001) >#  dumpAtLast (logical): always write output at the end of simulation (default=F)
(PID.TID 0000.0001) >#  diag_mnc   (logical): write to NetCDF files (default=useMNC)
(PID.TID 0000.0001) >#--for each output-stream:
(PID.TID 0000.0001) >#  fileName(n) : prefix of the output file name (max 80c long) for outp.stream n
(PID.TID 0000.0001) >#  frequency(n):< 0 : write snap-shot output every |frequency| seconds
(PID.TID 0000.0001) >#               > 0 : write time-average output every frequency seconds
(PID.TID 0000.0001) >#  timePhase(n)     : write at time = timePhase + multiple of |frequency|
(PID.TID 0000.0001) >#    averagingFreq  : frequency (in s) for periodic averaging interval
(PID.TID 0000.0001) >#    averagingPhase : phase     (in s) for periodic averaging interval
(PID.TID 0000.0001) >#    repeatCycle    : number of averaging intervals in 1 cycle
(PID.TID 0000.0001) >#  levels(:,n) : list of levels to write to file (Notes: declared as REAL)
(PID.TID 0000.0001) >#                when this entry is missing, select all common levels of this list
(PID.TID 0000.0001) >#  fields(:,n) : list of selected diagnostics fields (8.c) in outp.stream n
(PID.TID 0000.0001) >#                (see "available_diagnostics.log" file for the full list of diags)
(PID.TID 0000.0001) >#  missing_value(n) : missing value for real-type fields in output file "n"
(PID.TID 0000.0001) >#  fileFlags(n)     : specific code (8c string) for output file "n"
(PID.TID 0000.0001) >#--------------------
(PID.TID 0000.0001) > &DIAGNOSTICS_LIST
(PID.TID 0000.0001) ># diag_mnc     = .FALSE.,
(PID.TID 0000.0001) >  fields(1:8 ,1) = 'ETAN    ','DETADT2 ','PHIBOT  ',
(PID.TID 0000.0001) >                   'MXLDEPTH','GM_BVPcW','GM_BVPcS',
(PID.TID 0000.0001) >                   'SubMesLf','SubMpsiY',
(PID.TID 0000.0001) >#                  'GM_hTrsL','GM_baseS','GM_rLamb',
(PID.TID 0000.0001) >#                  'GM_VisbK',
(PID.TID 0000.0001) >   levels(1,1) = 1.,
(PID.TID 0000.0001) >   fileName(1) = 'surfDiag',
(PID.TID 0000.0001) >  frequency(1) = -86400.,
(PID.TID 0000.0001) >  timePhase(1) = 0.,
(PID.TID 0000.0001) >
(PID.TID 0000.0001) >  fields(1:7,2)  = 'UVEL    ','VVEL    ','WVEL    ','PHIHYD  ',
(PID.TID 0000.0001) >                   'THETA   ','THETASQ ','UVELSQ  ',
(PID.TID 0000.0001) ># do not specify levels => all levels are selected
(PID.TID 0000.0001) >#  fileName(2) = 'dynDiag',
(PID.TID 0000.0001) >  frequency(2) = -864000.,
(PID.TID 0000.0001) >  timePhase(2) = 0.,
(PID.TID 0000.0001) >
(PID.TID 0000.0001) >  fields(1:8,3)  = 'DRHODR  ','RHOAnoma',
(PID.TID 0000.0001) >                   'GM_Kwy  ','GM_Kwz  ','GM_Kvy  ',
(PID.TID 0000.0001) >                   'THETA   ',
(PID.TID 0000.0001) >                   'GM_PsiY ','GM_Kvz  ',
(PID.TID 0000.0001) >   fileName(3) = 'oceDiag',
(PID.TID 0000.0001) >  frequency(3) = -86400.,
(PID.TID 0000.0001) >  timePhase(3) = 0.,
(PID.TID 0000.0001) >
(PID.TID 0000.0001) >  fields(1:5,4)  = 'ADVy_TH ','ADVr_TH ',
(PID.TID 0000.0001) >                   'DFyE_TH ','DFrE_TH ',
(PID.TID 0000.0001) >                   'DFrI_TH ',
(PID.TID 0000.0001) >#                  'ADVx_SLT',
(PID.TID 0000.0001) >#  fileName(4) = 'flxDiag',
(PID.TID 0000.0001) >  frequency(4) = 1728000.,
(PID.TID 0000.0001) > /
(PID.TID 0000.0001) >
(PID.TID 0000.0001) >#--------------------
(PID.TID 0000.0001) ># Parameter for Diagnostics of per level statistics:
(PID.TID 0000.0001) >#--------------------
(PID.TID 0000.0001) >#  diagSt_mnc (logical): write stat-diags to NetCDF files (default=diag_mnc)
(PID.TID 0000.0001) >#  diagSt_regMaskFile : file containing the region-mask to read-in
(PID.TID 0000.0001) >#  nSetRegMskFile   : number of region-mask sets within the region-mask file
(PID.TID 0000.0001) >#  set_regMask(i)   : region-mask set-index that identifies the region "i"
(PID.TID 0000.0001) >#  val_regMask(i)   : region "i" identifier value in the region mask
(PID.TID 0000.0001) >#--for each output-stream:
(PID.TID 0000.0001) >#  stat_fName(n) : prefix of the output file name (max 80c long) for outp.stream n
(PID.TID 0000.0001) >#  stat_freq(n):< 0 : write snap-shot output every |stat_freq| seconds
(PID.TID 0000.0001) >#               > 0 : write time-average output every stat_freq seconds
(PID.TID 0000.0001) >#  stat_phase(n)    : write at time = stat_phase + multiple of |stat_freq|
(PID.TID 0000.0001) >#  stat_region(:,n) : list of "regions" (default: 1 region only=global)
(PID.TID 0000.0001) >#  stat_fields(:,n) : list of selected diagnostics fields (8.c) in outp.stream n
(PID.TID 0000.0001) >#                (see "available_diagnostics.log" file for the full list of diags)
(PID.TID 0000.0001) >#--------------------
(PID.TID 0000.0001) > &DIAG_STATIS_PARMS
(PID.TID 0000.0001) > stat_fields(1:13,1) = 'ETAN    ','UVEL    ','VVEL    ','WVEL    ', 'THETA   ',
(PID.TID 0000.0001) >                       'MXLDEPTH','SubMesLf','SubMpsiY','GM_PsiY ',
(PID.TID 0000.0001) >                       'GM_Kwy  ','GM_Kwz  ','GM_Kvy  ','GM_Kvz  ',
(PID.TID 0000.0001) >#                      'GM_hTrsL','GM_baseS','GM_rLamb',
(PID.TID 0000.0001) >  stat_fName(1) = 'dynStDiag',
(PID.TID 0000.0001) >   stat_freq(1) = 18000.,
(PID.TID 0000.0001) ># stat_phase(1) = 0.,
(PID.TID 0000.0001) > /
(PID.TID 0000.0001) 
(PID.TID 0000.0001) S/R DIAGNOSTICS_READPARMS, read namelist "diagnostics_list": start
(PID.TID 0000.0001) S/R DIAGNOSTICS_READPARMS, read namelist "diagnostics_list": OK
(PID.TID 0000.0001) S/R DIAGNOSTICS_READPARMS, read namelist "DIAG_STATIS_PARMS": start
(PID.TID 0000.0001) S/R DIAGNOSTICS_READPARMS, read namelist "DIAG_STATIS_PARMS": OK
(PID.TID 0000.0001)  DIAGNOSTICS_READPARMS: global parameter summary:
(PID.TID 0000.0001)  dumpAtLast = /* always write time-ave diags at the end */
(PID.TID 0000.0001)                   F
(PID.TID 0000.0001)     ;
(PID.TID 0000.0001)  diag_mnc =   /* write NetCDF output files */
(PID.TID 0000.0001)                   F
(PID.TID 0000.0001)     ;
(PID.TID 0000.0001)  useMissingValue = /* put MissingValue where mask = 0 */
(PID.TID 0000.0001)                   F
(PID.TID 0000.0001)     ;
(PID.TID 0000.0001) -----------------------------------------------------
(PID.TID 0000.0001)  DIAGNOSTICS_READPARMS: active diagnostics summary:
(PID.TID 0000.0001) -----------------------------------------------------
(PID.TID 0000.0001) Creating Output Stream: surfDiag
(PID.TID 0000.0001) Output Frequency:     -86400.000000 ; Phase:           0.000000
(PID.TID 0000.0001)  Averaging Freq.:          0.000000 , Phase:           0.000000 , Cycle:   1
(PID.TID 0000.0001)  missing value:  1.234567000000E+05 ; for integers:   123456789
(PID.TID 0000.0001)  Levels:       1.
(PID.TID 0000.0001)  Fields:    ETAN     DETADT2  PHIBOT   MXLDEPTH GM_BVPcW GM_BVPcS SubMesLf SubMpsiY
(PID.TID 0000.0001) Creating Output Stream: oceDiag
(PID.TID 0000.0001) Output Frequency:     -86400.000000 ; Phase:           0.000000
(PID.TID 0000.0001)  Averaging Freq.:          0.000000 , Phase:           0.000000 , Cycle:   1
(PID.TID 0000.0001)  missing value:  1.234567000000E+05 ; for integers:   123456789
(PID.TID 0000.0001)  Levels:    will be set later
(PID.TID 0000.0001)  Fields:    DRHODR   RHOAnoma GM_Kwy   GM_Kwz   GM_Kvy   THETA    GM_PsiY  GM_Kvz
(PID.TID 0000.0001) -----------------------------------------------------
(PID.TID 0000.0001)  DIAGNOSTICS_READPARMS: statistics diags. summary:
(PID.TID 0000.0001) Creating Stats. Output Stream: dynStDiag
(PID.TID 0000.0001) Output Frequency:      18000.000000 ; Phase:           0.000000
(PID.TID 0000.0001)  Regions:   0
(PID.TID 0000.0001)  Fields:    ETAN     UVEL     VVEL     WVEL     THETA    MXLDEPTH SubMesLf SubMpsiY GM_PsiY  GM_Kwy
(PID.TID 0000.0001)  Fields:    GM_Kwz   GM_Kvy   GM_Kvz
(PID.TID 0000.0001) -----------------------------------------------------
(PID.TID 0000.0001) 
(PID.TID 0000.0001) SET_PARMS: done
(PID.TID 0000.0001) Enter INI_VERTICAL_GRID: setInterFDr=    T ; setCenterDr=    F
(PID.TID 0000.0001) %MON XC_max                       =   5.0000000000000E+04
(PID.TID 0000.0001) %MON XC_min                       =   5.0000000000000E+04
(PID.TID 0000.0001) %MON XC_mean                      =   5.0000000000000E+04
(PID.TID 0000.0001) %MON XC_sd                        =   0.0000000000000E+00
(PID.TID 0000.0001) %MON XG_max                       =   0.0000000000000E+00
(PID.TID 0000.0001) %MON XG_min                       =   0.0000000000000E+00
(PID.TID 0000.0001) %MON XG_mean                      =   0.0000000000000E+00
(PID.TID 0000.0001) %MON XG_sd                        =   0.0000000000000E+00
(PID.TID 0000.0001) %MON DXC_max                      =   1.0000000000000E+05
(PID.TID 0000.0001) %MON DXC_min                      =   1.0000000000000E+05
(PID.TID 0000.0001) %MON DXC_mean                     =   1.0000000000000E+05
(PID.TID 0000.0001) %MON DXC_sd                       =   0.0000000000000E+00
(PID.TID 0000.0001) %MON DXF_max                      =   1.0000000000000E+05
(PID.TID 0000.0001) %MON DXF_min                      =   1.0000000000000E+05
(PID.TID 0000.0001) %MON DXF_mean                     =   1.0000000000000E+05
(PID.TID 0000.0001) %MON DXF_sd                       =   0.0000000000000E+00
(PID.TID 0000.0001) %MON DXG_max                      =   1.0000000000000E+05
(PID.TID 0000.0001) %MON DXG_min                      =   1.0000000000000E+05
(PID.TID 0000.0001) %MON DXG_mean                     =   1.0000000000000E+05
(PID.TID 0000.0001) %MON DXG_sd                       =   0.0000000000000E+00
(PID.TID 0000.0001) %MON DXV_max                      =   1.0000000000000E+05
(PID.TID 0000.0001) %MON DXV_min                      =   1.0000000000000E+05
(PID.TID 0000.0001) %MON DXV_mean                     =   1.0000000000000E+05
(PID.TID 0000.0001) %MON DXV_sd                       =   0.0000000000000E+00
(PID.TID 0000.0001) %MON YC_max                       =   3.1500000000000E+06
(PID.TID 0000.0001) %MON YC_min                       =   5.0000000000000E+04
(PID.TID 0000.0001) %MON YC_mean                      =   1.6000000000000E+06
(PID.TID 0000.0001) %MON YC_sd                        =   9.2330926563097E+05
(PID.TID 0000.0001) %MON YG_max                       =   3.1000000000000E+06
(PID.TID 0000.0001) %MON YG_min                       =   0.0000000000000E+00
(PID.TID 0000.0001) %MON YG_mean                      =   1.5500000000000E+06
(PID.TID 0000.0001) %MON YG_sd                        =   9.2330926563097E+05
(PID.TID 0000.0001) %MON DYC_max                      =   1.0000000000000E+05
(PID.TID 0000.0001) %MON DYC_min                      =   1.0000000000000E+05
(PID.TID 0000.0001) %MON DYC_mean                     =   1.0000000000000E+05
(PID.TID 0000.0001) %MON DYC_sd                       =   0.0000000000000E+00
(PID.TID 0000.0001) %MON DYF_max                      =   1.0000000000000E+05
(PID.TID 0000.0001) %MON DYF_min                      =   1.0000000000000E+05
(PID.TID 0000.0001) %MON DYF_mean                     =   1.0000000000000E+05
(PID.TID 0000.0001) %MON DYF_sd                       =   0.0000000000000E+00
(PID.TID 0000.0001) %MON DYG_max                      =   1.0000000000000E+05
(PID.TID 0000.0001) %MON DYG_min                      =   1.0000000000000E+05
(PID.TID 0000.0001) %MON DYG_mean                     =   1.0000000000000E+05
(PID.TID 0000.0001) %MON DYG_sd                       =   0.0000000000000E+00
(PID.TID 0000.0001) %MON DYU_max                      =   1.0000000000000E+05
(PID.TID 0000.0001) %MON DYU_min                      =   1.0000000000000E+05
(PID.TID 0000.0001) %MON DYU_mean                     =   1.0000000000000E+05
(PID.TID 0000.0001) %MON DYU_sd                       =   0.0000000000000E+00
(PID.TID 0000.0001) %MON RA_max                       =   1.0000000000000E+10
(PID.TID 0000.0001) %MON RA_min                       =   1.0000000000000E+10
(PID.TID 0000.0001) %MON RA_mean                      =   1.0000000000000E+10
(PID.TID 0000.0001) %MON RA_sd                        =   0.0000000000000E+00
(PID.TID 0000.0001) %MON RAW_max                      =   1.0000000000000E+10
(PID.TID 0000.0001) %MON RAW_min                      =   1.0000000000000E+10
(PID.TID 0000.0001) %MON RAW_mean                     =   1.0000000000000E+10
(PID.TID 0000.0001) %MON RAW_sd                       =   0.0000000000000E+00
(PID.TID 0000.0001) %MON RAS_max                      =   1.0000000000000E+10
(PID.TID 0000.0001) %MON RAS_min                      =   1.0000000000000E+10
(PID.TID 0000.0001) %MON RAS_mean                     =   1.0000000000000E+10
(PID.TID 0000.0001) %MON RAS_sd                       =   0.0000000000000E+00
(PID.TID 0000.0001) %MON RAZ_max                      =   1.0000000000000E+10
(PID.TID 0000.0001) %MON RAZ_min                      =   1.0000000000000E+10
(PID.TID 0000.0001) %MON RAZ_mean                     =   1.0000000000000E+10
(PID.TID 0000.0001) %MON RAZ_sd                       =   0.0000000000000E+00
(PID.TID 0000.0001) %MON AngleCS_max                  =   1.0000000000000E+00
(PID.TID 0000.0001) %MON AngleCS_min                  =   1.0000000000000E+00
(PID.TID 0000.0001) %MON AngleCS_mean                 =   1.0000000000000E+00
(PID.TID 0000.0001) %MON AngleCS_sd                   =   0.0000000000000E+00
(PID.TID 0000.0001) %MON AngleSN_max                  =   0.0000000000000E+00
(PID.TID 0000.0001) %MON AngleSN_min                  =   0.0000000000000E+00
(PID.TID 0000.0001) %MON AngleSN_mean                 =   0.0000000000000E+00
(PID.TID 0000.0001) %MON AngleSN_sd                   =   0.0000000000000E+00
(PID.TID 0000.0001)  MDS_READ_FIELD: opening global file: topo_slp.bin
(PID.TID 0000.0001) // =======================================================
(PID.TID 0000.0001) // Field Model R_low (ini_masks_etc)
(PID.TID 0000.0001) // CMIN =         -1.999737326001201E+03
(PID.TID 0000.0001) // CMAX =         -1.400262673998799E+03
(PID.TID 0000.0001) // CINT =          2.220276488897786E+01
(PID.TID 0000.0001) // SYMBOLS (CMIN->CMAX): -abcdefghijklmnopqrstuvwxyz+
(PID.TID 0000.0001) //                  0.0: .
(PID.TID 0000.0001) // RANGE I (Lo:Hi:Step):(    -2:     4:     1)
(PID.TID 0000.0001) // RANGE J (Lo:Hi:Step):(    35:    -2:    -1)
(PID.TID 0000.0001) // RANGE K (Lo:Hi:Step):(   1:   1:   1)
(PID.TID 0000.0001) // =======================================================
(PID.TID 0000.0001) K =   1
(PID.TID 0000.0001) //
(PID.TID 0000.0001) // |--J--|2101234
(PID.TID 0000.0001) //     35 -------
(PID.TID 0000.0001) //     34 -------
(PID.TID 0000.0001) //     33 .......
(PID.TID 0000.0001) //     32 .......
(PID.TID 0000.0001) //     31 +++++++
(PID.TID 0000.0001) //     30 +++++++
(PID.TID 0000.0001) //     29 +++++++
(PID.TID 0000.0001) //     28 +++++++
(PID.TID 0000.0001) //     27 +++++++
(PID.TID 0000.0001) //     26 +++++++
(PID.TID 0000.0001) //     25 +++++++
(PID.TID 0000.0001) //     24 +++++++
(PID.TID 0000.0001) //     23 +++++++
(PID.TID 0000.0001) //     22 zzzzzzz
(PID.TID 0000.0001) //     21 yyyyyyy
(PID.TID 0000.0001) //     20 wwwwwww
(PID.TID 0000.0001) //     19 uuuuuuu
(PID.TID 0000.0001) //     18 sssssss
(PID.TID 0000.0001) //     17 ooooooo
(PID.TID 0000.0001) //     16 lllllll
(PID.TID 0000.0001) //     15 hhhhhhh
(PID.TID 0000.0001) //     14 fffffff
(PID.TID 0000.0001) //     19 uuuuuuu
(PID.TID 0000.0001) //     18 sssssss
(PID.TID 0000.0001) //     17 ooooooo
(PID.TID 0000.0001) //     16 lllllll
(PID.TID 0000.0001) //     15 hhhhhhh
(PID.TID 0000.0001) //     14 fffffff
(PID.TID 0000.0001) //     13 ddddddd
(PID.TID 0000.0001) //     12 bbbbbbb
(PID.TID 0000.0001) //     11 aaaaaaa
(PID.TID 0000.0001) //     10 aaaaaaa
(PID.TID 0000.0001) //      9 -------
(PID.TID 0000.0001) //      8 -------
(PID.TID 0000.0001) //      7 -------
(PID.TID 0000.0001) //      6 -------
(PID.TID 0000.0001) //      5 -------
(PID.TID 0000.0001) //      4 -------
(PID.TID 0000.0001) //      3 -------
(PID.TID 0000.0001) //      2 -------
(PID.TID 0000.0001) //      1 .......
(PID.TID 0000.0001) //      0 .......
(PID.TID 0000.0001) //     -1 +++++++
(PID.TID 0000.0001) //     -2 +++++++
(PID.TID 0000.0001) // =======================================================
(PID.TID 0000.0001) // END OF FIELD                                          =
(PID.TID 0000.0001) // =======================================================
(PID.TID 0000.0001) 
(PID.TID 0000.0001) // =======================================================
(PID.TID 0000.0001) // Field Model Ro_surf (ini_masks_etc)
(PID.TID 0000.0001) // CMIN =          1.000000000000000E+32
(PID.TID 0000.0001) // CMAX =         -1.000000000000000E+32
(PID.TID 0000.0001) // CINT =          0.000000000000000E+00
(PID.TID 0000.0001) // SYMBOLS (CMIN->CMAX): -abcdefghijklmnopqrstuvwxyz+
(PID.TID 0000.0001) //                  0.0: .
(PID.TID 0000.0001) // RANGE I (Lo:Hi:Step):(    -2:     4:     1)
(PID.TID 0000.0001) // RANGE J (Lo:Hi:Step):(    35:    -2:    -1)
(PID.TID 0000.0001) // RANGE K (Lo:Hi:Step):(   1:   1:   1)
(PID.TID 0000.0001) // =======================================================
(PID.TID 0000.0001) // =======================================================
(PID.TID 0000.0001) // END OF FIELD                                          =
(PID.TID 0000.0001) // =======================================================
(PID.TID 0000.0001) 
(PID.TID 0000.0001) // =======================================================
(PID.TID 0000.0001) // Field hFacC at iteration          0
(PID.TID 0000.0001) // CMIN =          1.000000000000000E+00
(PID.TID 0000.0001) // CMAX =          1.000000000000000E+00
(PID.TID 0000.0001) // CINT =          0.000000000000000E+00
(PID.TID 0000.0001) // SYMBOLS (CMIN->CMAX): -abcdefghijklmnopqrstuvwxyz+
(PID.TID 0000.0001) //                  0.0: .
(PID.TID 0000.0001) // RANGE I (Lo:Hi:Step):(    -2:     4:     1)
(PID.TID 0000.0001) // RANGE J (Lo:Hi:Step):(    35:    -2:    -1)
(PID.TID 0000.0001) // RANGE K (Lo:Hi:Step):(   1:   1:   1)
(PID.TID 0000.0001) // =======================================================
(PID.TID 0000.0001) // =======================================================
(PID.TID 0000.0001) // END OF FIELD                                          =
(PID.TID 0000.0001) // =======================================================
(PID.TID 0000.0001) 
(PID.TID 0000.0001) // =======================================================
(PID.TID 0000.0001) // Field hFacW at iteration          0
(PID.TID 0000.0001) // CMIN =          1.000000000000000E+00
(PID.TID 0000.0001) // CMAX =          1.000000000000000E+00
(PID.TID 0000.0001) // CINT =          0.000000000000000E+00
(PID.TID 0000.0001) // SYMBOLS (CMIN->CMAX): -abcdefghijklmnopqrstuvwxyz+
(PID.TID 0000.0001) //                  0.0: .
(PID.TID 0000.0001) // RANGE I (Lo:Hi:Step):(    -2:     4:     1)
(PID.TID 0000.0001) // RANGE J (Lo:Hi:Step):(    35:    -2:    -1)
(PID.TID 0000.0001) // RANGE K (Lo:Hi:Step):(   1:   1:   1)
(PID.TID 0000.0001) // =======================================================
(PID.TID 0000.0001) // =======================================================
(PID.TID 0000.0001) // END OF FIELD                                          =
(PID.TID 0000.0001) // =======================================================
(PID.TID 0000.0001) 
(PID.TID 0000.0001) // =======================================================
(PID.TID 0000.0001) // Field hFacS at iteration          0
(PID.TID 0000.0001) // CMIN =          1.000000000000000E+00
(PID.TID 0000.0001) // CMAX =          1.000000000000000E+00
(PID.TID 0000.0001) // CINT =          0.000000000000000E+00
(PID.TID 0000.0001) // SYMBOLS (CMIN->CMAX): -abcdefghijklmnopqrstuvwxyz+
(PID.TID 0000.0001) //                  0.0: .
(PID.TID 0000.0001) // RANGE I (Lo:Hi:Step):(    -2:     4:     1)
(PID.TID 0000.0001) // RANGE J (Lo:Hi:Step):(    35:    -2:    -1)
(PID.TID 0000.0001) // RANGE K (Lo:Hi:Step):(   1:   1:   1)
(PID.TID 0000.0001) // =======================================================
(PID.TID 0000.0001) // =======================================================
(PID.TID 0000.0001) // END OF FIELD                                          =
(PID.TID 0000.0001) // =======================================================
(PID.TID 0000.0001) 
(PID.TID 0000.0001) GAD_INIT_FIXED: GAD_OlMinSize=  1  0  1
(PID.TID 0000.0001) 
(PID.TID 0000.0001) // ===================================
(PID.TID 0000.0001) // GAD parameters :
(PID.TID 0000.0001) // ===================================
(PID.TID 0000.0001) tempAdvScheme =   /* Temp. Horiz.Advection scheme selector */
(PID.TID 0000.0001)                       2
(PID.TID 0000.0001)     ;
(PID.TID 0000.0001) tempVertAdvScheme =   /* Temp. Vert. Advection scheme selector */
(PID.TID 0000.0001)                       2
(PID.TID 0000.0001)     ;
(PID.TID 0000.0001) tempMultiDimAdvec =   /* use Muti-Dim Advec method for Temp */
(PID.TID 0000.0001)                   F
(PID.TID 0000.0001)     ;
(PID.TID 0000.0001) tempSOM_Advection = /* use 2nd Order Moment Advection for Temp */
(PID.TID 0000.0001)                   F
(PID.TID 0000.0001)     ;
(PID.TID 0000.0001) AdamsBashforthGt = /* apply Adams-Bashforth extrapolation on Gt */
(PID.TID 0000.0001)                   T
(PID.TID 0000.0001)     ;
(PID.TID 0000.0001) AdamsBashforth_T = /* apply Adams-Bashforth extrapolation on Temp */
(PID.TID 0000.0001)                   F
(PID.TID 0000.0001)     ;
(PID.TID 0000.0001) saltAdvScheme =   /* Salt. Horiz.advection scheme selector */
(PID.TID 0000.0001)                       2
(PID.TID 0000.0001)     ;
(PID.TID 0000.0001) saltVertAdvScheme =   /* Salt. Vert. Advection scheme selector */
(PID.TID 0000.0001)                       2
(PID.TID 0000.0001)     ;
(PID.TID 0000.0001) saltMultiDimAdvec =   /* use Muti-Dim Advec method for Salt */
(PID.TID 0000.0001)                   F
(PID.TID 0000.0001)     ;
(PID.TID 0000.0001) saltSOM_Advection = /* use 2nd Order Moment Advection for Salt */
(PID.TID 0000.0001)                   F
(PID.TID 0000.0001)     ;
(PID.TID 0000.0001) AdamsBashforthGs = /* apply Adams-Bashforth extrapolation on Gs */
(PID.TID 0000.0001)                   T
(PID.TID 0000.0001)     ;
(PID.TID 0000.0001) AdamsBashforth_S = /* apply Adams-Bashforth extrapolation on Salt */
(PID.TID 0000.0001)                   F
(PID.TID 0000.0001)     ;
(PID.TID 0000.0001) // ===================================
(PID.TID 0000.0001) ------------------------------------------------------------
(PID.TID 0000.0001) DIAGNOSTICS_SET_LEVELS: done
(PID.TID 0000.0001)  Total Nb of available Diagnostics: ndiagt=   196
(PID.TID 0000.0001)  write list of available Diagnostics to file: available_diagnostics.log
(PID.TID 0000.0001) SETDIAG: Allocate  1 x  1 Levels for Diagnostic #    23 ETAN
(PID.TID 0000.0001) SETDIAG: Allocate  1 x  1 Levels for Diagnostic #    25 DETADT2
(PID.TID 0000.0001) SETDIAG: Allocate  1 x  1 Levels for Diagnostic #    71 PHIBOT
(PID.TID 0000.0001) SETDIAG: Allocate  1 x  1 Levels for Diagnostic #    73 MXLDEPTH
(PID.TID 0000.0001) SETDIAG: Allocate  1 x  1 Levels for Diagnostic #   195 GM_BVPcW
(PID.TID 0000.0001) SETDIAG: Allocate  1 x  1 Levels for Diagnostic #   196 GM_BVPcS
(PID.TID 0000.0001) SETDIAG: Allocate  1 x  1 Levels for Diagnostic #   179 SubMesLf
(PID.TID 0000.0001) SETDIAG: Allocate  1 x  1 Levels for Diagnostic #   181 SubMpsiY
(PID.TID 0000.0001) SETDIAG: Allocate 25 x  1 Levels for Diagnostic #    74 DRHODR
(PID.TID 0000.0001) SETDIAG: Allocate 25 x  1 Levels for Diagnostic #    64 RHOAnoma
(PID.TID 0000.0001) SETDIAG: Allocate 25 x  1 Levels for Diagnostic #   187 GM_Kwy
(PID.TID 0000.0001) SETDIAG: Allocate 25 x  1 Levels for Diagnostic #   188 GM_Kwz
(PID.TID 0000.0001) SETDIAG: Allocate 25 x  1 Levels for Diagnostic #   183 GM_Kvy
(PID.TID 0000.0001) SETDIAG: Allocate 25 x  1 Levels for Diagnostic #    26 THETA
(PID.TID 0000.0001) SETDIAG: Allocate 25 x  1 Levels for Diagnostic #   190 GM_PsiY
(PID.TID 0000.0001) SETDIAG: Allocate 25 x  1 Levels for Diagnostic #   185 GM_Kvz
(PID.TID 0000.0001)   space allocated for all diagnostics:     208 levels
(PID.TID 0000.0001)   set mate pointer for diag #   195  GM_BVPcW , Parms: SU P    M1 , mate:   196
(PID.TID 0000.0001)   set mate pointer for diag #   196  GM_BVPcS , Parms: SV P    M1 , mate:   195
(PID.TID 0000.0001) DIAGNOSTICS_SET_POINTERS: Set levels for Outp.Stream: oceDiag
(PID.TID 0000.0001)  Levels:       1.   2.   3.   4.   5.   6.   7.   8.   9.  10.  11.  12.  13.  14.  15.  16.  17.  18.  19.  20.
(PID.TID 0000.0001)  Levels:      21.  22.  23.  24.  25.
(PID.TID 0000.0001) DIAGNOSTICS_SET_POINTERS: done
(PID.TID 0000.0001) ------------------------------------------------------------
(PID.TID 0000.0001) DIAGSTATS_SET_REGIONS: define no region
(PID.TID 0000.0001) ------------------------------------------------------------
(PID.TID 0000.0001) SETDIAG: Allocate  1 Levels for Stats-Diag #    23 ETAN
(PID.TID 0000.0001) SETDIAG: Allocate 25 Levels for Stats-Diag #    30 UVEL
(PID.TID 0000.0001) SETDIAG: Allocate 25 Levels for Stats-Diag #    31 VVEL
(PID.TID 0000.0001) SETDIAG: Allocate 25 Levels for Stats-Diag #    32 WVEL
(PID.TID 0000.0001) SETDIAG: Allocate 25 Levels for Stats-Diag #    26 THETA
(PID.TID 0000.0001) SETDIAG: Allocate  1 Levels for Stats-Diag #    73 MXLDEPTH
(PID.TID 0000.0001) SETDIAG: Allocate  1 Levels for Stats-Diag #   179 SubMesLf
(PID.TID 0000.0001) SETDIAG: Allocate  1 Levels for Stats-Diag #   181 SubMpsiY
(PID.TID 0000.0001) SETDIAG: Allocate 25 Levels for Stats-Diag #   190 GM_PsiY
(PID.TID 0000.0001) SETDIAG: Allocate 25 Levels for Stats-Diag #   187 GM_Kwy
(PID.TID 0000.0001) SETDIAG: Allocate 25 Levels for Stats-Diag #   188 GM_Kwz
(PID.TID 0000.0001) SETDIAG: Allocate 25 Levels for Stats-Diag #   183 GM_Kvy
(PID.TID 0000.0001) SETDIAG: Allocate 25 Levels for Stats-Diag #   185 GM_Kvz
(PID.TID 0000.0001)   space allocated for all stats-diags:     229 levels
(PID.TID 0000.0001) DIAGSTATS_SET_POINTERS: done
(PID.TID 0000.0001) ------------------------------------------------------------
(PID.TID 0000.0001) DIAGSTATS_INI_IO: open file: dynStDiag.0000000000.txt , unit=     9
(PID.TID 0000.0001) %MON fCori_max                    =   1.0000000000000E-04
(PID.TID 0000.0001) %MON fCori_min                    =   1.0000000000000E-04
(PID.TID 0000.0001) %MON fCori_mean                   =   1.0000000000000E-04
(PID.TID 0000.0001) %MON fCori_sd                     =   2.7105054312138E-20
(PID.TID 0000.0001) %MON fCoriG_max                   =   1.0000000000000E-04
(PID.TID 0000.0001) %MON fCoriG_min                   =   1.0000000000000E-04
(PID.TID 0000.0001) %MON fCoriG_mean                  =   1.0000000000000E-04
(PID.TID 0000.0001) %MON fCoriG_sd                    =   2.7105054312138E-20
(PID.TID 0000.0001) %MON fCoriCos_max                 =   0.0000000000000E+00
(PID.TID 0000.0001) %MON fCoriCos_min                 =   0.0000000000000E+00
(PID.TID 0000.0001) %MON fCoriCos_mean                =   0.0000000000000E+00
(PID.TID 0000.0001) %MON fCoriCos_sd                  =   0.0000000000000E+00
(PID.TID 0000.0001) INI_CG2D: CG2D normalisation factor =  5.0006567712553626E-04
(PID.TID 0000.0001) 
(PID.TID 0000.0001) // =======================================================
(PID.TID 0000.0001) // Model configuration
(PID.TID 0000.0001) // =======================================================
(PID.TID 0000.0001) //
(PID.TID 0000.0001) // "Physical" paramters ( PARM01 in namelist )
(PID.TID 0000.0001) //
(PID.TID 0000.0001) buoyancyRelation = /* Type of relation to get Buoyancy */
(PID.TID 0000.0001)               'OCEANIC'
(PID.TID 0000.0001)     ;
(PID.TID 0000.0001) fluidIsAir   =  /* fluid major constituent is Air */
(PID.TID 0000.0001)                   F
(PID.TID 0000.0001)     ;
(PID.TID 0000.0001) fluidIsWater =  /* fluid major constituent is Water */
(PID.TID 0000.0001)                   T
(PID.TID 0000.0001)     ;
(PID.TID 0000.0001) usingPCoords =  /* use p (or p*) vertical coordinate */
(PID.TID 0000.0001)                   F
(PID.TID 0000.0001)     ;
(PID.TID 0000.0001) usingZCoords =  /* use z (or z*) vertical coordinate */
(PID.TID 0000.0001)                   T
(PID.TID 0000.0001)     ;
(PID.TID 0000.0001) tRef =   /* Reference temperature profile ( oC or K ) */
(PID.TID 0000.0001)                 2.900000000000000E+01,      /* K =  1 */
(PID.TID 0000.0001)                 2.800000000000000E+01,      /* K =  2 */
(PID.TID 0000.0001)                 2.700000000000000E+01,      /* K =  3 */
(PID.TID 0000.0001)                 2.600000000000000E+01,      /* K =  4 */
(PID.TID 0000.0001)                 2.500000000000000E+01,      /* K =  5 */
(PID.TID 0000.0001)                 2.400000000000000E+01,      /* K =  6 */
(PID.TID 0000.0001)                 2.300000000000000E+01,      /* K =  7 */
(PID.TID 0000.0001)                 2.200000000000000E+01,      /* K =  8 */
(PID.TID 0000.0001)                 2.100000000000000E+01,      /* K =  9 */
(PID.TID 0000.0001)                 2.000000000000000E+01,      /* K = 10 */
(PID.TID 0000.0001)                 1.900000000000000E+01,      /* K = 11 */
(PID.TID 0000.0001)                 1.800000000000000E+01,      /* K = 12 */
(PID.TID 0000.0001)                 1.700000000000000E+01,      /* K = 13 */
(PID.TID 0000.0001)                 1.600000000000000E+01,      /* K = 14 */
(PID.TID 0000.0001)                 1.500000000000000E+01,      /* K = 15 */
(PID.TID 0000.0001)                 1.400000000000000E+01,      /* K = 16 */
(PID.TID 0000.0001)                 1.300000000000000E+01,      /* K = 17 */
(PID.TID 0000.0001)                 1.200000000000000E+01,      /* K = 18 */
(PID.TID 0000.0001)                 1.100000000000000E+01,      /* K = 19 */
(PID.TID 0000.0001)                 1.000000000000000E+01,      /* K = 20 */
(PID.TID 0000.0001)                 9.000000000000000E+00,      /* K = 21 */
(PID.TID 0000.0001)                 7.000000000000000E+00,      /* K = 22 */
(PID.TID 0000.0001)                 8.000000000000000E+00,      /* K = 23 */
(PID.TID 0000.0001)                 6.000000000000000E+00,      /* K = 24 */
(PID.TID 0000.0001)                 5.000000000000000E+00       /* K = 25 */
(PID.TID 0000.0001)     ;
(PID.TID 0000.0001) sRef =   /* Reference salinity profile ( psu ) */
(PID.TID 0000.0001)    25 @  3.000000000000000E+01              /* K =  1: 25 */
(PID.TID 0000.0001)     ;
(PID.TID 0000.0001) viscAh  =   /* Lateral eddy viscosity ( m^2/s ) */
(PID.TID 0000.0001)                 0.000000000000000E+00
(PID.TID 0000.0001)     ;
(PID.TID 0000.0001) viscAhMax = /* Maximum lateral eddy viscosity ( m^2/s ) */
(PID.TID 0000.0001)                 1.000000000000000E+21
(PID.TID 0000.0001)     ;
(PID.TID 0000.0001) viscAhGrid = /* Grid dependent lateral eddy viscosity ( non-dim. ) */
(PID.TID 0000.0001)                 0.000000000000000E+00
(PID.TID 0000.0001)     ;
(PID.TID 0000.0001) useFullLeith = /* Use Full Form of Leith Viscosity on/off flag*/
(PID.TID 0000.0001)                   F
(PID.TID 0000.0001)     ;
(PID.TID 0000.0001) useStrainTensionVisc= /* Use StrainTension Form of Viscous Operator flag*/
(PID.TID 0000.0001)                   F
(PID.TID 0000.0001)     ;
(PID.TID 0000.0001) useAreaViscLength = /* Use area for visc length instead of geom. mean*/
(PID.TID 0000.0001)                   F
(PID.TID 0000.0001)     ;
(PID.TID 0000.0001) viscC2leith = /* Leith harmonic visc. factor (on grad(vort),non-dim.) */
(PID.TID 0000.0001)                 0.000000000000000E+00
(PID.TID 0000.0001)     ;
(PID.TID 0000.0001) viscC2leithD = /* Leith harmonic viscosity factor (on grad(div),non-dim.)*/
(PID.TID 0000.0001)                 0.000000000000000E+00
(PID.TID 0000.0001)     ;
(PID.TID 0000.0001) viscC2smag = /* Smagorinsky harmonic viscosity factor (non-dim.) */
(PID.TID 0000.0001)                 0.000000000000000E+00
(PID.TID 0000.0001)     ;
(PID.TID 0000.0001) viscA4  =   /* Lateral biharmonic viscosity ( m^4/s ) */
(PID.TID 0000.0001)                 1.200000000000000E+06
(PID.TID 0000.0001)     ;
(PID.TID 0000.0001) viscA4Max = /* Maximum biharmonic viscosity ( m^2/s ) */
(PID.TID 0000.0001)                 1.000000000000000E+21
(PID.TID 0000.0001)     ;
(PID.TID 0000.0001) viscA4Grid = /* Grid dependent biharmonic viscosity ( non-dim. ) */
(PID.TID 0000.0001)                 0.000000000000000E+00
(PID.TID 0000.0001)     ;
(PID.TID 0000.0001) viscC4leith = /* Leith biharm viscosity factor (on grad(vort), non-dim.)*/
(PID.TID 0000.0001)                 0.000000000000000E+00
(PID.TID 0000.0001)     ;
(PID.TID 0000.0001) viscC4leithD = /* Leith biharm viscosity factor (on grad(div), non-dim.) */
(PID.TID 0000.0001)                 0.000000000000000E+00
(PID.TID 0000.0001)     ;
(PID.TID 0000.0001) viscC4Smag = /* Smagorinsky biharm viscosity factor (non-dim) */
(PID.TID 0000.0001)                 0.000000000000000E+00
(PID.TID 0000.0001)     ;
(PID.TID 0000.0001) no_slip_sides =  /* Viscous BCs: No-slip sides */
(PID.TID 0000.0001)                   F
(PID.TID 0000.0001)     ;
(PID.TID 0000.0001) sideDragFactor = /* side-drag scaling factor (non-dim) */
(PID.TID 0000.0001)                 2.000000000000000E+00
(PID.TID 0000.0001)     ;
(PID.TID 0000.0001) viscArNr = /* vertical profile of vertical viscosity ( m^2/s )*/
(PID.TID 0000.0001)    25 @  2.000000000000000E-04              /* K =  1: 25 */
(PID.TID 0000.0001)     ;
(PID.TID 0000.0001) no_slip_bottom =  /* Viscous BCs: No-slip bottom */
(PID.TID 0000.0001)                   T
(PID.TID 0000.0001)     ;
(PID.TID 0000.0001) bottomDragLinear = /* linear bottom-drag coefficient ( m/s ) */
(PID.TID 0000.0001)                 1.000000000000000E-03
(PID.TID 0000.0001)     ;
(PID.TID 0000.0001) bottomDragQuadratic = /* quadratic bottom-drag coefficient (-) */
(PID.TID 0000.0001)                 0.000000000000000E+00
(PID.TID 0000.0001)     ;
(PID.TID 0000.0001) diffKhT =   /* Laplacian diffusion of heat laterally ( m^2/s ) */
(PID.TID 0000.0001)                 0.000000000000000E+00
(PID.TID 0000.0001)     ;
(PID.TID 0000.0001) diffK4T =   /* Biharmonic diffusion of heat laterally ( m^4/s ) */
(PID.TID 0000.0001)                 0.000000000000000E+00
(PID.TID 0000.0001)     ;
(PID.TID 0000.0001) diffKhS =   /* Laplacian diffusion of salt laterally ( m^2/s ) */
(PID.TID 0000.0001)                 0.000000000000000E+00
(PID.TID 0000.0001)     ;
(PID.TID 0000.0001) diffK4S =   /* Biharmonic diffusion of salt laterally ( m^4/s ) */
(PID.TID 0000.0001)                 0.000000000000000E+00
(PID.TID 0000.0001)     ;
(PID.TID 0000.0001) diffKrNrT = /* vertical profile of vertical diffusion of Temp ( m^2/s )*/
(PID.TID 0000.0001)     6 @  1.000000000000000E-02,             /* K =  1:  6 */
(PID.TID 0000.0001)    19 @  2.000000000000000E-05              /* K =  7: 25 */
(PID.TID 0000.0001)     ;
(PID.TID 0000.0001) diffKrNrS = /* vertical profile of vertical diffusion of Salt ( m^2/s )*/
(PID.TID 0000.0001)     6 @  1.000000000000000E-02,             /* K =  1:  6 */
(PID.TID 0000.0001)    19 @  2.000000000000000E-05              /* K =  7: 25 */
(PID.TID 0000.0001)     ;
(PID.TID 0000.0001) diffKrBL79surf = /* Surface diffusion for Bryan and Lewis 79 ( m^2/s ) */
(PID.TID 0000.0001)                 0.000000000000000E+00
(PID.TID 0000.0001)     ;
(PID.TID 0000.0001) diffKrBL79deep = /* Deep diffusion for Bryan and Lewis 1979 ( m^2/s ) */
(PID.TID 0000.0001)                 0.000000000000000E+00
(PID.TID 0000.0001)     ;
(PID.TID 0000.0001) diffKrBL79scl = /* Depth scale for Bryan and Lewis 1979 ( m ) */
(PID.TID 0000.0001)                 2.000000000000000E+02
(PID.TID 0000.0001)     ;
(PID.TID 0000.0001) diffKrBL79Ho = /* Turning depth for Bryan and Lewis 1979 ( m ) */
(PID.TID 0000.0001)                -2.000000000000000E+03
(PID.TID 0000.0001)     ;
(PID.TID 0000.0001) ivdc_kappa = /* Implicit Vertical Diffusivity for Convection ( m^2/s) */
(PID.TID 0000.0001)                 0.000000000000000E+00
(PID.TID 0000.0001)     ;
(PID.TID 0000.0001) hMixCriteria=  /* Criteria for mixed-layer diagnostic */
(PID.TID 0000.0001)                -1.000000000000000E-01
(PID.TID 0000.0001)     ;
(PID.TID 0000.0001) dRhoSmall =  /* Parameter for mixed-layer diagnostic */
(PID.TID 0000.0001)                 1.000000000000000E-06
(PID.TID 0000.0001)     ;
(PID.TID 0000.0001) hMixSmooth=  /* Smoothing parameter for mixed-layer diagnostic */
(PID.TID 0000.0001)                 0.000000000000000E+00
(PID.TID 0000.0001)     ;
(PID.TID 0000.0001) eosType =  /* Type of Equation of State */
(PID.TID 0000.0001)               'LINEAR'
(PID.TID 0000.0001)     ;
(PID.TID 0000.0001) tAlpha =   /* Linear EOS thermal expansion coefficient ( 1/oC ) */
(PID.TID 0000.0001)                 2.000000000000000E-04
(PID.TID 0000.0001)     ;
(PID.TID 0000.0001) sBeta =   /* Linear EOS haline contraction coefficient ( 1/psu ) */
(PID.TID 0000.0001)                 0.000000000000000E+00
(PID.TID 0000.0001)     ;
(PID.TID 0000.0001) rhonil =   /* Reference density ( kg/m^3 ) */
(PID.TID 0000.0001)                 1.000000000000000E+03
(PID.TID 0000.0001)     ;
(PID.TID 0000.0001) rhoConst =   /* Reference density ( kg/m^3 ) */
(PID.TID 0000.0001)                 1.000000000000000E+03
(PID.TID 0000.0001)     ;
(PID.TID 0000.0001) rhoFacC = /* normalized Reference density @ cell-Center (-) */
(PID.TID 0000.0001)    25 @  1.000000000000000E+00              /* K =  1: 25 */
(PID.TID 0000.0001)     ;
(PID.TID 0000.0001) rhoFacF = /* normalized Reference density @ W-Interface (-) */
(PID.TID 0000.0001)    26 @  1.000000000000000E+00              /* K =  1: 26 */
(PID.TID 0000.0001)     ;
(PID.TID 0000.0001) rhoConstFresh =   /* Reference density ( kg/m^3 ) */
(PID.TID 0000.0001)                 1.000000000000000E+03
(PID.TID 0000.0001)     ;
(PID.TID 0000.0001) gravity =   /* Gravitational acceleration ( m/s^2 ) */
(PID.TID 0000.0001)                 9.810000000000000E+00
(PID.TID 0000.0001)     ;
(PID.TID 0000.0001) gBaro =   /* Barotropic gravity ( m/s^2 ) */
(PID.TID 0000.0001)                 9.810000000000000E+00
(PID.TID 0000.0001)     ;
(PID.TID 0000.0001) rotationPeriod =   /* Rotation Period ( s ) */
(PID.TID 0000.0001)                 8.616400000000000E+04
(PID.TID 0000.0001)     ;
(PID.TID 0000.0001) omega =   /* Angular velocity ( rad/s ) */
(PID.TID 0000.0001)                 7.292123516990375E-05
(PID.TID 0000.0001)     ;
(PID.TID 0000.0001) f0 =   /* Reference coriolis parameter ( 1/s ) */
(PID.TID 0000.0001)                 1.000000000000000E-04
(PID.TID 0000.0001)     ;
(PID.TID 0000.0001) beta =   /* Beta ( 1/(m.s) ) */
(PID.TID 0000.0001)                 0.000000000000000E+00
(PID.TID 0000.0001)     ;
(PID.TID 0000.0001) fPrime =   /* Second coriolis parameter ( 1/s ) */
(PID.TID 0000.0001)                 0.000000000000000E+00
(PID.TID 0000.0001)     ;
(PID.TID 0000.0001) rigidLid =   /* Rigid lid on/off flag */
(PID.TID 0000.0001)                   F
(PID.TID 0000.0001)     ;
(PID.TID 0000.0001) implicitFreeSurface =   /* Implicit free surface on/off flag */
(PID.TID 0000.0001)                   T
(PID.TID 0000.0001)     ;
(PID.TID 0000.0001) freeSurfFac =   /* Implicit free surface factor */
(PID.TID 0000.0001)                 1.000000000000000E+00
(PID.TID 0000.0001)     ;
(PID.TID 0000.0001) implicSurfPress =  /* Surface Pressure implicit factor (0-1)*/
(PID.TID 0000.0001)                 1.000000000000000E+00
(PID.TID 0000.0001)     ;
(PID.TID 0000.0001) implicDiv2Dflow =  /* Barot. Flow Div. implicit factor (0-1)*/
(PID.TID 0000.0001)                 1.000000000000000E+00
(PID.TID 0000.0001)     ;
(PID.TID 0000.0001) exactConserv =  /* Exact Volume Conservation on/off flag*/
(PID.TID 0000.0001)                   F
(PID.TID 0000.0001)     ;
(PID.TID 0000.0001) linFSConserveTr = /* Tracer correction for Lin Free Surface on/off flag*/
(PID.TID 0000.0001)                   F
(PID.TID 0000.0001)     ;
(PID.TID 0000.0001) uniformLin_PhiSurf = /* use uniform Bo_surf on/off flag*/
(PID.TID 0000.0001)                   T
(PID.TID 0000.0001)     ;
(PID.TID 0000.0001) hFacMin =   /* minimum partial cell factor (hFac) */
(PID.TID 0000.0001)                 1.000000000000000E-01
(PID.TID 0000.0001)     ;
(PID.TID 0000.0001) hFacMinDr = /* minimum partial cell thickness ( m) */
(PID.TID 0000.0001)                 1.000000000000000E-01
(PID.TID 0000.0001)     ;
(PID.TID 0000.0001) nonlinFreeSurf = /* Non-linear Free Surf. options (-1,0,1,2,3)*/
(PID.TID 0000.0001)                       0
(PID.TID 0000.0001)      -1,0= Off ; 1,2,3= On, 2=+rescale gU,gV, 3=+update cg2d solv.
(PID.TID 0000.0001)     ;
(PID.TID 0000.0001) hFacInf =   /* lower threshold for hFac (nonlinFreeSurf only)*/
(PID.TID 0000.0001)                 2.000000000000000E-01
(PID.TID 0000.0001)     ;
(PID.TID 0000.0001) hFacSup =   /* upper threshold for hFac (nonlinFreeSurf only)*/
(PID.TID 0000.0001)                 2.000000000000000E+00
(PID.TID 0000.0001)     ;
(PID.TID 0000.0001) select_rStar = /* r* Vertical coord. options (=0 r coord.; >0 uses r*)*/
(PID.TID 0000.0001)                       0
(PID.TID 0000.0001)     ;
(PID.TID 0000.0001) selectAddFluid = /* option for mass source/sink of fluid (=0: off) */
(PID.TID 0000.0001)                       0
(PID.TID 0000.0001)     ;
(PID.TID 0000.0001) useRealFreshWaterFlux = /* Real Fresh Water Flux on/off flag*/
(PID.TID 0000.0001)                   F
(PID.TID 0000.0001)     ;
(PID.TID 0000.0001) temp_EvPrRn = /* Temp. of Evap/Prec/R (UNSET=use local T)(oC)*/
(PID.TID 0000.0001)                 1.234567000000000E+05
(PID.TID 0000.0001)     ;
(PID.TID 0000.0001) salt_EvPrRn = /* Salin. of Evap/Prec/R (UNSET=use local S)(psu)*/
(PID.TID 0000.0001)                 0.000000000000000E+00
(PID.TID 0000.0001)     ;
(PID.TID 0000.0001) temp_addMass = /* Temp. of addMass array (UNSET=use local T)(oC)*/
(PID.TID 0000.0001)                 1.234567000000000E+05
(PID.TID 0000.0001)     ;
(PID.TID 0000.0001) salt_addMass = /* Salin. of addMass array (UNSET=use local S)(psu)*/
(PID.TID 0000.0001)                 0.000000000000000E+00
(PID.TID 0000.0001)     ;
(PID.TID 0000.0001) convertFW2Salt = /* convert F.W. Flux to Salt Flux (-1=use local S)(psu)*/
(PID.TID 0000.0001)                 3.500000000000000E+01
(PID.TID 0000.0001)     ;
(PID.TID 0000.0001) use3Dsolver = /* use 3-D pressure solver on/off flag */
(PID.TID 0000.0001)                   F
(PID.TID 0000.0001)     ;
(PID.TID 0000.0001) nonHydrostatic =  /* Non-Hydrostatic on/off flag */
(PID.TID 0000.0001)                   F
(PID.TID 0000.0001)     ;
(PID.TID 0000.0001) nh_Am2 = /* Non-Hydrostatic terms scaling factor */
(PID.TID 0000.0001)                 1.000000000000000E+00
(PID.TID 0000.0001)     ;
(PID.TID 0000.0001) implicitNHPress = /* Non-Hyd Pressure implicit factor (0-1)*/
(PID.TID 0000.0001)                 1.000000000000000E+00
(PID.TID 0000.0001)     ;
(PID.TID 0000.0001) selectNHfreeSurf = /* Non-Hyd (free-)Surface option */
(PID.TID 0000.0001)                       0
(PID.TID 0000.0001)     ;
(PID.TID 0000.0001) quasiHydrostatic = /* Quasi-Hydrostatic on/off flag */
(PID.TID 0000.0001)                   F
(PID.TID 0000.0001)     ;
(PID.TID 0000.0001) momStepping =  /* Momentum equation on/off flag */
(PID.TID 0000.0001)                   T
(PID.TID 0000.0001)     ;
(PID.TID 0000.0001) vectorInvariantMomentum= /* Vector-Invariant Momentum on/off */
(PID.TID 0000.0001)                   F
(PID.TID 0000.0001)     ;
(PID.TID 0000.0001) momAdvection =  /* Momentum advection on/off flag */
(PID.TID 0000.0001)                   T
(PID.TID 0000.0001)     ;
(PID.TID 0000.0001) momViscosity =  /* Momentum viscosity on/off flag */
(PID.TID 0000.0001)                   T
(PID.TID 0000.0001)     ;
(PID.TID 0000.0001) momImplVertAdv= /* Momentum implicit vert. advection on/off*/
(PID.TID 0000.0001)                   F
(PID.TID 0000.0001)     ;
(PID.TID 0000.0001) implicitViscosity = /* Implicit viscosity on/off flag */
(PID.TID 0000.0001)                   F
(PID.TID 0000.0001)     ;
(PID.TID 0000.0001) metricTerms =  /* metric-Terms on/off flag */
(PID.TID 0000.0001)                   F
(PID.TID 0000.0001)     ;
(PID.TID 0000.0001) useNHMTerms = /* Non-Hydrostatic Metric-Terms on/off */
(PID.TID 0000.0001)                   F
(PID.TID 0000.0001)     ;
(PID.TID 0000.0001) selectCoriMap = /* Coriolis Map options (0,1,2,3)*/
(PID.TID 0000.0001)                       1
(PID.TID 0000.0001)     0= f-Plane ; 1= Beta-Plane ; 2= Spherical ; 3= read from file
(PID.TID 0000.0001)     ;
(PID.TID 0000.0001) use3dCoriolis = /* 3-D Coriolis on/off flag */
(PID.TID 0000.0001)                   F
(PID.TID 0000.0001)     ;
(PID.TID 0000.0001) useCoriolis =  /* Coriolis on/off flag */
(PID.TID 0000.0001)                   T
(PID.TID 0000.0001)     ;
(PID.TID 0000.0001) useCDscheme =  /* CD scheme on/off flag */
(PID.TID 0000.0001)                   F
(PID.TID 0000.0001)     ;
(PID.TID 0000.0001) useEnergyConservingCoriolis= /* Flx-Form Coriolis scheme flag */
(PID.TID 0000.0001)                   F
(PID.TID 0000.0001)     ;
(PID.TID 0000.0001) useJamartWetPoints= /* Coriolis WetPoints method flag */
(PID.TID 0000.0001)                   F
(PID.TID 0000.0001)     ;
(PID.TID 0000.0001) useJamartMomAdv= /* V.I Non-linear terms Jamart flag */
(PID.TID 0000.0001)                   F
(PID.TID 0000.0001)     ;
(PID.TID 0000.0001) useAbsVorticity= /* V.I Works with f+zeta in Coriolis */
(PID.TID 0000.0001)                   F
(PID.TID 0000.0001)     ;
(PID.TID 0000.0001) selectVortScheme= /* V.I Scheme selector for Vorticity-Term */
(PID.TID 0000.0001)               123456789
(PID.TID 0000.0001)    = 0 : enstrophy (Shallow-Water Eq.) conserving scheme by Sadourny, JAS 75
(PID.TID 0000.0001)    = 1 : same as 0 with modified hFac
(PID.TID 0000.0001)    = 2 : energy conserving scheme (used by Sadourny in JAS 75 paper)
(PID.TID 0000.0001)    = 3 : energy (general) and enstrophy (2D, nonDiv.) conserving scheme
(PID.TID 0000.0001)          from Sadourny (Burridge & Haseler, ECMWF Rep.4, 1977)
(PID.TID 0000.0001)     ;
(PID.TID 0000.0001) upwindVorticity= /* V.I Upwind bias vorticity flag */
(PID.TID 0000.0001)                   F
(PID.TID 0000.0001)     ;
(PID.TID 0000.0001) highOrderVorticity= /* V.I High order vort. advect. flag */
(PID.TID 0000.0001)                   F
(PID.TID 0000.0001)     ;
(PID.TID 0000.0001) upwindShear= /* V.I Upwind vertical Shear advection flag */
(PID.TID 0000.0001)                   F
(PID.TID 0000.0001)     ;
(PID.TID 0000.0001) selectKEscheme= /* V.I Kinetic Energy scheme selector */
(PID.TID 0000.0001)                       0
(PID.TID 0000.0001)     ;
(PID.TID 0000.0001) momForcing =  /* Momentum forcing on/off flag */
(PID.TID 0000.0001)                   T
(PID.TID 0000.0001)     ;
(PID.TID 0000.0001) momPressureForcing =  /* Momentum pressure term on/off flag */
(PID.TID 0000.0001)                   T
(PID.TID 0000.0001)     ;
(PID.TID 0000.0001) implicitIntGravWave= /* Implicit Internal Gravity Wave flag */
(PID.TID 0000.0001)                   F
(PID.TID 0000.0001)     ;
(PID.TID 0000.0001) staggerTimeStep =   /* Stagger time stepping on/off flag */
(PID.TID 0000.0001)                   F
(PID.TID 0000.0001)     ;
(PID.TID 0000.0001) multiDimAdvection =   /* enable/disable Multi-Dim Advection */
(PID.TID 0000.0001)                   T
(PID.TID 0000.0001)     ;
(PID.TID 0000.0001) useMultiDimAdvec =   /* Multi-Dim Advection is/is-not used */
(PID.TID 0000.0001)                   F
(PID.TID 0000.0001)     ;
(PID.TID 0000.0001) implicitDiffusion = /* Implicit Diffusion on/off flag */
(PID.TID 0000.0001)                   T
(PID.TID 0000.0001)     ;
(PID.TID 0000.0001) tempStepping =  /* Temperature equation on/off flag */
(PID.TID 0000.0001)                   T
(PID.TID 0000.0001)     ;
(PID.TID 0000.0001) tempAdvection=  /* Temperature advection on/off flag */
(PID.TID 0000.0001)                   T
(PID.TID 0000.0001)     ;
(PID.TID 0000.0001) tempImplVertAdv = /* Temp. implicit vert. advection on/off */
(PID.TID 0000.0001)                   F
(PID.TID 0000.0001)     ;
(PID.TID 0000.0001) tempForcing  =  /* Temperature forcing on/off flag */
(PID.TID 0000.0001)                   T
(PID.TID 0000.0001)     ;
(PID.TID 0000.0001) tempIsActiveTr = /* Temp. is a dynamically Active Tracer */
(PID.TID 0000.0001)                   T
(PID.TID 0000.0001)     ;
(PID.TID 0000.0001) saltStepping =  /* Salinity equation on/off flag */
(PID.TID 0000.0001)                   T
(PID.TID 0000.0001)     ;
(PID.TID 0000.0001) saltAdvection=  /* Salinity advection on/off flag */
(PID.TID 0000.0001)                   T
(PID.TID 0000.0001)     ;
(PID.TID 0000.0001) saltImplVertAdv = /* Sali. implicit vert. advection on/off */
(PID.TID 0000.0001)                   F
(PID.TID 0000.0001)     ;
(PID.TID 0000.0001) saltForcing  =  /* Salinity forcing on/off flag */
(PID.TID 0000.0001)                   T
(PID.TID 0000.0001)     ;
(PID.TID 0000.0001) saltIsActiveTr = /* Salt  is a dynamically Active Tracer */
(PID.TID 0000.0001)                   F
(PID.TID 0000.0001)     ;
(PID.TID 0000.0001)  readBinaryPrec = /* Precision used for reading binary files */
(PID.TID 0000.0001)                      64
(PID.TID 0000.0001)     ;
(PID.TID 0000.0001) writeBinaryPrec = /* Precision used for writing binary files */
(PID.TID 0000.0001)                      64
(PID.TID 0000.0001)     ;
(PID.TID 0000.0001)  globalFiles = /* write "global" (=not per tile) files */
(PID.TID 0000.0001)                   F
(PID.TID 0000.0001)     ;
(PID.TID 0000.0001)  useSingleCpuIO = /* only master MPI process does I/O */
(PID.TID 0000.0001)                   F
(PID.TID 0000.0001)     ;
(PID.TID 0000.0001) /* debLev[*]  : level of debug & auxiliary message printing */
(PID.TID 0000.0001) debLevZero =  0 ; /* level of disabled aux. msg printing */
(PID.TID 0000.0001)    debLevA =  1 ; /* level of minimum  aux. msg printing */
(PID.TID 0000.0001)    debLevB =  2 ; /* level of low aux. print (report read-file opening)*/
(PID.TID 0000.0001)    debLevC =  3 ; /* level of moderate debug prt (most pkgs debug msg) */
(PID.TID 0000.0001)    debLevD =  4 ; /* level of enhanced debug prt (add DEBUG_STATS prt) */
(PID.TID 0000.0001)    debLevE =  5 ; /* level of extensive debug printing */
(PID.TID 0000.0001) debugLevel =  /* select debug printing level */
(PID.TID 0000.0001)                       2
(PID.TID 0000.0001)     ;
(PID.TID 0000.0001) //
(PID.TID 0000.0001) // Elliptic solver(s) paramters ( PARM02 in namelist )
(PID.TID 0000.0001) //
(PID.TID 0000.0001) cg2dMaxIters =   /* Upper limit on 2d con. grad iterations  */
(PID.TID 0000.0001)                    1000
(PID.TID 0000.0001)     ;
(PID.TID 0000.0001) cg2dChkResFreq =   /* 2d con. grad convergence test frequency */
(PID.TID 0000.0001)                       1
(PID.TID 0000.0001)     ;
(PID.TID 0000.0001) cg2dTargetResidual =   /* 2d con. grad target residual  */
(PID.TID 0000.0001)                 1.000000000000000E-13
(PID.TID 0000.0001)     ;
(PID.TID 0000.0001) cg2dTargetResWunit =   /* CG2d target residual [W units] */
(PID.TID 0000.0001)                -1.000000000000000E+00
(PID.TID 0000.0001)     ;
(PID.TID 0000.0001) cg2dPreCondFreq =   /* Freq. for updating cg2d preconditioner */
(PID.TID 0000.0001)                       1
(PID.TID 0000.0001)     ;
(PID.TID 0000.0001) useSRCGSolver =  /* use single reduction CG solver(s) */
(PID.TID 0000.0001)                   F
(PID.TID 0000.0001)     ;
(PID.TID 0000.0001) printResidualFreq = /* Freq. for printing CG residual */
(PID.TID 0000.0001)                       0
(PID.TID 0000.0001)     ;
(PID.TID 0000.0001) //
(PID.TID 0000.0001) // Time stepping paramters ( PARM03 in namelist )
(PID.TID 0000.0001) //
(PID.TID 0000.0001) deltaTmom =   /* Momentum equation timestep ( s ) */
(PID.TID 0000.0001)                 3.600000000000000E+03
(PID.TID 0000.0001)     ;
(PID.TID 0000.0001) deltaTfreesurf = /* FreeSurface equation timestep ( s ) */
(PID.TID 0000.0001)                 3.600000000000000E+03
(PID.TID 0000.0001)     ;
(PID.TID 0000.0001) dTtracerLev =  /* Tracer equation timestep ( s ) */
(PID.TID 0000.0001)    25 @  3.600000000000000E+03              /* K =  1: 25 */
(PID.TID 0000.0001)     ;
(PID.TID 0000.0001) deltaTClock  =   /* Model clock timestep ( s ) */
(PID.TID 0000.0001)                 3.600000000000000E+03
(PID.TID 0000.0001)     ;
(PID.TID 0000.0001) cAdjFreq =   /* Convective adjustment interval ( s ) */
(PID.TID 0000.0001)                 3.600000000000000E+03
(PID.TID 0000.0001)     ;
(PID.TID 0000.0001) momForcingOutAB = /* =1: take Momentum Forcing out of Adams-Bash. stepping */
(PID.TID 0000.0001)                       0
(PID.TID 0000.0001)     ;
(PID.TID 0000.0001) tracForcingOutAB = /* =1: take T,S,pTr Forcing out of Adams-Bash. stepping */
(PID.TID 0000.0001)                       0
(PID.TID 0000.0001)     ;
(PID.TID 0000.0001) momDissip_In_AB = /* put Dissipation Tendency in Adams-Bash. stepping */
(PID.TID 0000.0001)                   T
(PID.TID 0000.0001)     ;
(PID.TID 0000.0001) doAB_onGtGs = /* apply AB on Tendencies (rather than on T,S)*/
(PID.TID 0000.0001)                   T
(PID.TID 0000.0001)     ;
(PID.TID 0000.0001) abEps =   /* Adams-Bashforth-2 stabilizing weight */
(PID.TID 0000.0001)                 1.000000000000000E-01
(PID.TID 0000.0001)     ;
(PID.TID 0000.0001) pickupStrictlyMatch= /* stop if pickup do not strictly match */
(PID.TID 0000.0001)                   T
(PID.TID 0000.0001)     ;
(PID.TID 0000.0001) nIter0   =   /* Run starting timestep number */
(PID.TID 0000.0001)                       0
(PID.TID 0000.0001)     ;
(PID.TID 0000.0001) nTimeSteps = /* Number of timesteps */
(PID.TID 0000.0001)                      25
(PID.TID 0000.0001)     ;
(PID.TID 0000.0001) nEndIter =   /* Run ending timestep number */
(PID.TID 0000.0001)                      25
(PID.TID 0000.0001)     ;
(PID.TID 0000.0001) baseTime =   /* Model base time ( s ) */
(PID.TID 0000.0001)                 0.000000000000000E+00
(PID.TID 0000.0001)     ;
(PID.TID 0000.0001) startTime =  /* Run start time ( s ) */
(PID.TID 0000.0001)                 0.000000000000000E+00
(PID.TID 0000.0001)     ;
(PID.TID 0000.0001) endTime  =   /* Integration ending time ( s ) */
(PID.TID 0000.0001)                 9.000000000000000E+04
(PID.TID 0000.0001)     ;
(PID.TID 0000.0001) pChkPtFreq = /* Permanent restart/pickup file interval ( s ) */
(PID.TID 0000.0001)                 0.000000000000000E+00
(PID.TID 0000.0001)     ;
(PID.TID 0000.0001) chkPtFreq  = /* Rolling restart/pickup file interval ( s ) */
(PID.TID 0000.0001)                 0.000000000000000E+00
(PID.TID 0000.0001)     ;
(PID.TID 0000.0001) pickup_write_mdsio =   /* Model IO flag. */
(PID.TID 0000.0001)                   T
(PID.TID 0000.0001)     ;
(PID.TID 0000.0001) pickup_read_mdsio =   /* Model IO flag. */
(PID.TID 0000.0001)                   T
(PID.TID 0000.0001)     ;
(PID.TID 0000.0001) pickup_write_immed =   /* Model IO flag. */
(PID.TID 0000.0001)                   F
(PID.TID 0000.0001)     ;
(PID.TID 0000.0001) writePickupAtEnd =   /* Model IO flag. */
(PID.TID 0000.0001)                   T
(PID.TID 0000.0001)     ;
(PID.TID 0000.0001) dumpFreq =   /* Model state write out interval ( s ). */
(PID.TID 0000.0001)                 2.592000000000000E+06
(PID.TID 0000.0001)     ;
(PID.TID 0000.0001) dumpInitAndLast= /* write out Initial & Last iter. model state */
(PID.TID 0000.0001)                   T
(PID.TID 0000.0001)     ;
(PID.TID 0000.0001) snapshot_mdsio =   /* Model IO flag. */
(PID.TID 0000.0001)                   T
(PID.TID 0000.0001)     ;
(PID.TID 0000.0001) monitorFreq =   /* Monitor output interval ( s ). */
(PID.TID 0000.0001)                 1.000000000000000E+00
(PID.TID 0000.0001)     ;
(PID.TID 0000.0001) monitorSelect = /* select group of variables to monitor */
(PID.TID 0000.0001)                       1
(PID.TID 0000.0001)     ;
(PID.TID 0000.0001) monitor_stdio =   /* Model IO flag. */
(PID.TID 0000.0001)                   T
(PID.TID 0000.0001)     ;
(PID.TID 0000.0001) externForcingPeriod =   /* forcing period (s) */
(PID.TID 0000.0001)                 0.000000000000000E+00
(PID.TID 0000.0001)     ;
(PID.TID 0000.0001) externForcingCycle =   /* period of the cyle (s). */
(PID.TID 0000.0001)                 0.000000000000000E+00
(PID.TID 0000.0001)     ;
(PID.TID 0000.0001) tauThetaClimRelax =   /* relaxation time scale (s) */
(PID.TID 0000.0001)                 0.000000000000000E+00
(PID.TID 0000.0001)     ;
(PID.TID 0000.0001) tauSaltClimRelax =   /* relaxation time scale (s) */
(PID.TID 0000.0001)                 0.000000000000000E+00
(PID.TID 0000.0001)     ;
(PID.TID 0000.0001) latBandClimRelax =   /* max. Lat. where relaxation */
(PID.TID 0000.0001)                 9.600000000000000E+06
(PID.TID 0000.0001)     ;
(PID.TID 0000.0001) //
(PID.TID 0000.0001) // Gridding paramters ( PARM04 in namelist )
(PID.TID 0000.0001) //
(PID.TID 0000.0001) usingCartesianGrid = /* Cartesian coordinates flag ( True/False ) */
(PID.TID 0000.0001)                   T
(PID.TID 0000.0001)     ;
(PID.TID 0000.0001) usingCylindricalGrid = /* Cylindrical coordinates flag ( True/False ) */
(PID.TID 0000.0001)                   F
(PID.TID 0000.0001)     ;
(PID.TID 0000.0001) usingSphericalPolarGrid = /* Spherical coordinates flag ( True/False ) */
(PID.TID 0000.0001)                   F
(PID.TID 0000.0001)     ;
(PID.TID 0000.0001) usingCurvilinearGrid = /* Curvilinear coordinates flag ( True/False ) */
(PID.TID 0000.0001)                   F
(PID.TID 0000.0001)     ;
(PID.TID 0000.0001) selectSigmaCoord = /* Hybrid-Sigma Vert. Coordinate option */
(PID.TID 0000.0001)                       0
(PID.TID 0000.0001)     ;
(PID.TID 0000.0001) Ro_SeaLevel = /* r(1) ( units of r ==  m ) */
(PID.TID 0000.0001)                 0.000000000000000E+00
(PID.TID 0000.0001)     ;
(PID.TID 0000.0001) rSigmaBnd = /* r/sigma transition ( units of r ==  m ) */
(PID.TID 0000.0001)                 1.234567000000000E+05
(PID.TID 0000.0001)     ;
(PID.TID 0000.0001) rkSign =   /* index orientation relative to vertical coordinate */
(PID.TID 0000.0001)                -1.000000000000000E+00
(PID.TID 0000.0001)     ;
(PID.TID 0000.0001) gravitySign = /* gravity orientation relative to vertical coordinate */
(PID.TID 0000.0001)                -1.000000000000000E+00
(PID.TID 0000.0001)     ;
(PID.TID 0000.0001) mass2rUnit = /* convert mass per unit area [kg/m2] to r-units [m] */
(PID.TID 0000.0001)                 1.000000000000000E-03
(PID.TID 0000.0001)     ;
(PID.TID 0000.0001) rUnit2mass = /* convert r-units [m] to mass per unit area [kg/m2] */
(PID.TID 0000.0001)                 1.000000000000000E+03
(PID.TID 0000.0001)     ;
(PID.TID 0000.0001) drC =   /* C spacing ( units of r ) */
(PID.TID 0000.0001)                 1.000000000000000E+01,      /* K =  1 */
(PID.TID 0000.0001)     9 @  2.000000000000000E+01,             /* K =  2: 10 */
(PID.TID 0000.0001)                 2.200000000000000E+01,      /* K = 11 */
(PID.TID 0000.0001)                 2.650000000000000E+01,      /* K = 12 */
(PID.TID 0000.0001)                 3.200000000000000E+01,      /* K = 13 */
(PID.TID 0000.0001)                 3.850000000000000E+01,      /* K = 14 */
(PID.TID 0000.0001)                 4.650000000000000E+01,      /* K = 15 */
(PID.TID 0000.0001)                 5.600000000000000E+01,      /* K = 16 */
(PID.TID 0000.0001)                 6.750000000000000E+01,      /* K = 17 */
(PID.TID 0000.0001)                 8.150000000000000E+01,      /* K = 18 */
(PID.TID 0000.0001)                 9.800000000000000E+01,      /* K = 19 */
(PID.TID 0000.0001)                 1.175000000000000E+02,      /* K = 20 */
(PID.TID 0000.0001)                 1.415000000000000E+02,      /* K = 21 */
(PID.TID 0000.0001)                 1.705000000000000E+02,      /* K = 22 */
(PID.TID 0000.0001)                 2.050000000000000E+02,      /* K = 23 */
(PID.TID 0000.0001)                 2.470000000000000E+02,      /* K = 24 */
(PID.TID 0000.0001)                 2.975000000000000E+02       /* K = 25 */
(PID.TID 0000.0001)     ;
(PID.TID 0000.0001) drF =   /* W spacing ( units of r ) */
(PID.TID 0000.0001)    10 @  2.000000000000000E+01,             /* K =  1: 10 */
(PID.TID 0000.0001)                 2.400000000000000E+01,      /* K = 11 */
(PID.TID 0000.0001)                 2.900000000000000E+01,      /* K = 12 */
(PID.TID 0000.0001)                 3.500000000000000E+01,      /* K = 13 */
(PID.TID 0000.0001)                 4.200000000000000E+01,      /* K = 14 */
(PID.TID 0000.0001)                 5.100000000000000E+01,      /* K = 15 */
(PID.TID 0000.0001)                 6.100000000000000E+01,      /* K = 16 */
(PID.TID 0000.0001)                 7.400000000000000E+01,      /* K = 17 */
(PID.TID 0000.0001)                 8.900000000000000E+01,      /* K = 18 */
(PID.TID 0000.0001)                 1.070000000000000E+02,      /* K = 19 */
(PID.TID 0000.0001)                 1.280000000000000E+02,      /* K = 20 */
(PID.TID 0000.0001)                 1.550000000000000E+02,      /* K = 21 */
(PID.TID 0000.0001)                 1.860000000000000E+02,      /* K = 22 */
(PID.TID 0000.0001)                 2.240000000000000E+02,      /* K = 23 */
(PID.TID 0000.0001)                 2.700000000000000E+02,      /* K = 24 */
(PID.TID 0000.0001)                 3.250000000000000E+02       /* K = 25 */
(PID.TID 0000.0001)     ;
(PID.TID 0000.0001) delX = /* U spacing ( m - cartesian, degrees - spherical ) */
(PID.TID 0000.0001)                 1.000000000000000E+05       /* I =  1 */
(PID.TID 0000.0001)     ;
(PID.TID 0000.0001) delY = /* V spacing ( m - cartesian, degrees - spherical ) */
(PID.TID 0000.0001)    32 @  1.000000000000000E+05              /* J =  1: 32 */
(PID.TID 0000.0001)     ;
(PID.TID 0000.0001) xgOrigin = /* X-axis origin of West  edge (cartesian: m, lat-lon: deg.) */
(PID.TID 0000.0001)                 0.000000000000000E+00
(PID.TID 0000.0001)     ;
(PID.TID 0000.0001) ygOrigin = /* Y-axis origin of South edge (cartesian: m, lat-lon: deg.) */
(PID.TID 0000.0001)                 0.000000000000000E+00
(PID.TID 0000.0001)     ;
(PID.TID 0000.0001) rSphere =  /* Radius ( ignored - cartesian, m - spherical ) */
(PID.TID 0000.0001)                 6.370000000000000E+06
(PID.TID 0000.0001)     ;
(PID.TID 0000.0001) deepAtmosphere = /* Deep/Shallow Atmosphere flag (True/False) */
(PID.TID 0000.0001)                   F
(PID.TID 0000.0001)     ;
(PID.TID 0000.0001) xC =  /* xC(:,1,:,1) : P-point X coord ( deg. or m if cartesian) */
(PID.TID 0000.0001)                 5.000000000000000E+04       /* I =  1 */
(PID.TID 0000.0001)     ;
(PID.TID 0000.0001) yC =  /* yC(1,:,1,:) : P-point Y coord ( deg. or m if cartesian) */
(PID.TID 0000.0001)                 5.000000000000000E+04,      /* J =  1 */
(PID.TID 0000.0001)                 1.500000000000000E+05,      /* J =  2 */
(PID.TID 0000.0001)                 2.500000000000000E+05,      /* J =  3 */
(PID.TID 0000.0001)                 3.500000000000000E+05,      /* J =  4 */
(PID.TID 0000.0001)                 4.500000000000000E+05,      /* J =  5 */
(PID.TID 0000.0001)                 5.500000000000000E+05,      /* J =  6 */
(PID.TID 0000.0001)                 6.500000000000000E+05,      /* J =  7 */
(PID.TID 0000.0001)                 7.500000000000000E+05,      /* J =  8 */
(PID.TID 0000.0001)                 8.500000000000000E+05,      /* J =  9 */
(PID.TID 0000.0001)                 9.500000000000000E+05,      /* J = 10 */
(PID.TID 0000.0001)                 1.050000000000000E+06,      /* J = 11 */
(PID.TID 0000.0001)                 1.150000000000000E+06,      /* J = 12 */
(PID.TID 0000.0001)                 1.250000000000000E+06,      /* J = 13 */
(PID.TID 0000.0001)                 1.350000000000000E+06,      /* J = 14 */
(PID.TID 0000.0001)                 1.450000000000000E+06,      /* J = 15 */
(PID.TID 0000.0001)                 1.550000000000000E+06,      /* J = 16 */
(PID.TID 0000.0001)                 1.650000000000000E+06,      /* J = 17 */
(PID.TID 0000.0001)                 1.750000000000000E+06,      /* J = 18 */
(PID.TID 0000.0001)                 1.850000000000000E+06,      /* J = 19 */
(PID.TID 0000.0001)                 1.950000000000000E+06,      /* J = 20 */
(PID.TID 0000.0001)                 2.050000000000000E+06,      /* J = 21 */
(PID.TID 0000.0001)                 2.150000000000000E+06,      /* J = 22 */
(PID.TID 0000.0001)                 2.250000000000000E+06,      /* J = 23 */
(PID.TID 0000.0001)                 2.350000000000000E+06,      /* J = 24 */
(PID.TID 0000.0001)                 2.450000000000000E+06,      /* J = 25 */
(PID.TID 0000.0001)                 2.550000000000000E+06,      /* J = 26 */
(PID.TID 0000.0001)                 2.650000000000000E+06,      /* J = 27 */
(PID.TID 0000.0001)                 2.750000000000000E+06,      /* J = 28 */
(PID.TID 0000.0001)                 2.850000000000000E+06,      /* J = 29 */
(PID.TID 0000.0001)                 2.950000000000000E+06,      /* J = 30 */
(PID.TID 0000.0001)                 3.050000000000000E+06,      /* J = 31 */
(PID.TID 0000.0001)                 3.150000000000000E+06       /* J = 32 */
(PID.TID 0000.0001)     ;
(PID.TID 0000.0001) rcoord = /* P-point R coordinate (  units of r ) */
(PID.TID 0000.0001)                -1.000000000000000E+01,      /* K =  1 */
(PID.TID 0000.0001)                -3.000000000000000E+01,      /* K =  2 */
(PID.TID 0000.0001)                -5.000000000000000E+01,      /* K =  3 */
(PID.TID 0000.0001)                -7.000000000000000E+01,      /* K =  4 */
(PID.TID 0000.0001)                -9.000000000000000E+01,      /* K =  5 */
(PID.TID 0000.0001)                -1.100000000000000E+02,      /* K =  6 */
(PID.TID 0000.0001)                -1.300000000000000E+02,      /* K =  7 */
(PID.TID 0000.0001)                -1.500000000000000E+02,      /* K =  8 */
(PID.TID 0000.0001)                -1.700000000000000E+02,      /* K =  9 */
(PID.TID 0000.0001)                -1.900000000000000E+02,      /* K = 10 */
(PID.TID 0000.0001)                -2.120000000000000E+02,      /* K = 11 */
(PID.TID 0000.0001)                -2.385000000000000E+02,      /* K = 12 */
(PID.TID 0000.0001)                -2.705000000000000E+02,      /* K = 13 */
(PID.TID 0000.0001)                -3.090000000000000E+02,      /* K = 14 */
(PID.TID 0000.0001)                -3.555000000000000E+02,      /* K = 15 */
(PID.TID 0000.0001)                -4.115000000000000E+02,      /* K = 16 */
(PID.TID 0000.0001)                -4.790000000000000E+02,      /* K = 17 */
(PID.TID 0000.0001)                -5.605000000000000E+02,      /* K = 18 */
(PID.TID 0000.0001)                -6.585000000000000E+02,      /* K = 19 */
(PID.TID 0000.0001)                -7.760000000000000E+02,      /* K = 20 */
(PID.TID 0000.0001)                -9.175000000000000E+02,      /* K = 21 */
(PID.TID 0000.0001)                -1.088000000000000E+03,      /* K = 22 */
(PID.TID 0000.0001)                -1.293000000000000E+03,      /* K = 23 */
(PID.TID 0000.0001)                -1.540000000000000E+03,      /* K = 24 */
(PID.TID 0000.0001)                -1.837500000000000E+03       /* K = 25 */
(PID.TID 0000.0001)     ;
(PID.TID 0000.0001) rF =   /* W-Interf. R coordinate (  units of r ) */
(PID.TID 0000.0001)                 0.000000000000000E+00,      /* K =  1 */
(PID.TID 0000.0001)                -2.000000000000000E+01,      /* K =  2 */
(PID.TID 0000.0001)                -4.000000000000000E+01,      /* K =  3 */
(PID.TID 0000.0001)                -6.000000000000000E+01,      /* K =  4 */
(PID.TID 0000.0001)                -8.000000000000000E+01,      /* K =  5 */
(PID.TID 0000.0001)                -1.000000000000000E+02,      /* K =  6 */
(PID.TID 0000.0001)                -1.200000000000000E+02,      /* K =  7 */
(PID.TID 0000.0001)                -1.400000000000000E+02,      /* K =  8 */
(PID.TID 0000.0001)                -1.600000000000000E+02,      /* K =  9 */
(PID.TID 0000.0001)                -1.800000000000000E+02,      /* K = 10 */
(PID.TID 0000.0001)                -2.000000000000000E+02,      /* K = 11 */
(PID.TID 0000.0001)                -2.240000000000000E+02,      /* K = 12 */
(PID.TID 0000.0001)                -2.530000000000000E+02,      /* K = 13 */
(PID.TID 0000.0001)                -2.880000000000000E+02,      /* K = 14 */
(PID.TID 0000.0001)                -3.300000000000000E+02,      /* K = 15 */
(PID.TID 0000.0001)                -3.810000000000000E+02,      /* K = 16 */
(PID.TID 0000.0001)                -4.420000000000000E+02,      /* K = 17 */
(PID.TID 0000.0001)                -5.160000000000000E+02,      /* K = 18 */
(PID.TID 0000.0001)                -6.050000000000000E+02,      /* K = 19 */
(PID.TID 0000.0001)                -7.120000000000000E+02,      /* K = 20 */
(PID.TID 0000.0001)                -8.400000000000000E+02,      /* K = 21 */
(PID.TID 0000.0001)                -9.950000000000000E+02,      /* K = 22 */
(PID.TID 0000.0001)                -1.181000000000000E+03,      /* K = 23 */
(PID.TID 0000.0001)                -1.405000000000000E+03,      /* K = 24 */
(PID.TID 0000.0001)                -1.675000000000000E+03,      /* K = 25 */
(PID.TID 0000.0001)                -2.000000000000000E+03       /* K = 26 */
(PID.TID 0000.0001)     ;
(PID.TID 0000.0001) deepFacC = /* deep-model grid factor @ cell-Center (-) */
(PID.TID 0000.0001)    25 @  1.000000000000000E+00              /* K =  1: 25 */
(PID.TID 0000.0001)     ;
(PID.TID 0000.0001) deepFacF = /* deep-model grid factor @ W-Interface (-) */
(PID.TID 0000.0001)    26 @  1.000000000000000E+00              /* K =  1: 26 */
(PID.TID 0000.0001)     ;
(PID.TID 0000.0001) rVel2wUnit = /* convert units: rVel -> wSpeed (=1 if z-coord)*/
(PID.TID 0000.0001)    26 @  1.000000000000000E+00              /* K =  1: 26 */
(PID.TID 0000.0001)     ;
(PID.TID 0000.0001) wUnit2rVel = /* convert units: wSpeed -> rVel (=1 if z-coord)*/
(PID.TID 0000.0001)    26 @  1.000000000000000E+00              /* K =  1: 26 */
(PID.TID 0000.0001)     ;
(PID.TID 0000.0001) dBdrRef = /* Vertical grad. of reference buoyancy [(m/s/r)^2] */
(PID.TID 0000.0001)                 0.000000000000000E+00,      /* K =  1 */
(PID.TID 0000.0001)     9 @  9.810000000000001E-05,             /* K =  2: 10 */
(PID.TID 0000.0001)                 8.918181818181819E-05,      /* K = 11 */
(PID.TID 0000.0001)                 7.403773584905661E-05,      /* K = 12 */
(PID.TID 0000.0001)                 6.131250000000001E-05,      /* K = 13 */
(PID.TID 0000.0001)                 5.096103896103897E-05,      /* K = 14 */
(PID.TID 0000.0001)                 4.219354838709678E-05,      /* K = 15 */
(PID.TID 0000.0001)                 3.503571428571429E-05,      /* K = 16 */
(PID.TID 0000.0001)                 2.906666666666667E-05,      /* K = 17 */
(PID.TID 0000.0001)                 2.407361963190185E-05,      /* K = 18 */
(PID.TID 0000.0001)                 2.002040816326531E-05,      /* K = 19 */
(PID.TID 0000.0001)                 1.669787234042553E-05,      /* K = 20 */
(PID.TID 0000.0001)                 1.386572438162544E-05,      /* K = 21 */
(PID.TID 0000.0001)                 2.301466275659825E-05,      /* K = 22 */
(PID.TID 0000.0001)                -9.570731707317075E-06,      /* K = 23 */
(PID.TID 0000.0001)                 1.588663967611337E-05,      /* K = 24 */
(PID.TID 0000.0001)                 6.594957983193279E-06       /* K = 25 */
(PID.TID 0000.0001)     ;
(PID.TID 0000.0001) rotateGrid = /* use rotated grid ( True/False ) */
(PID.TID 0000.0001)                   F
(PID.TID 0000.0001)     ;
(PID.TID 0000.0001) phiEuler = /* Euler angle, rotation about original z-coordinate [rad] */
(PID.TID 0000.0001)                 0.000000000000000E+00
(PID.TID 0000.0001)     ;
(PID.TID 0000.0001) thetaEuler = /* Euler angle, rotation about new x-coordinate [rad] */
(PID.TID 0000.0001)                 0.000000000000000E+00
(PID.TID 0000.0001)     ;
(PID.TID 0000.0001) psiEuler = /* Euler angle, rotation about new z-coordinate [rad] */
(PID.TID 0000.0001)                 0.000000000000000E+00
(PID.TID 0000.0001)     ;
(PID.TID 0000.0001) dxF =  /* dxF(:,1,:,1) ( units: m ) */
(PID.TID 0000.0001)                 1.000000000000000E+05       /* I =  1 */
(PID.TID 0000.0001)     ;
(PID.TID 0000.0001) dxF =  /* dxF(1,:,1,:) ( units: m ) */
(PID.TID 0000.0001)    32 @  1.000000000000000E+05              /* J =  1: 32 */
(PID.TID 0000.0001)     ;
(PID.TID 0000.0001) dyF =  /* dyF(:,1,:,1) ( units: m ) */
(PID.TID 0000.0001)                 1.000000000000000E+05       /* I =  1 */
(PID.TID 0000.0001)     ;
(PID.TID 0000.0001) dyF =  /* dyF(1,:,1,:) ( units: m ) */
(PID.TID 0000.0001)    32 @  1.000000000000000E+05              /* J =  1: 32 */
(PID.TID 0000.0001)     ;
(PID.TID 0000.0001) dxG =  /* dxG(:,1,:,1) ( units: m ) */
(PID.TID 0000.0001)                 1.000000000000000E+05       /* I =  1 */
(PID.TID 0000.0001)     ;
(PID.TID 0000.0001) dxG =  /* dxG(1,:,1,:) ( units: m ) */
(PID.TID 0000.0001)    32 @  1.000000000000000E+05              /* J =  1: 32 */
(PID.TID 0000.0001)     ;
(PID.TID 0000.0001) dyG =  /* dyG(:,1,:,1) ( units: m ) */
(PID.TID 0000.0001)                 1.000000000000000E+05       /* I =  1 */
(PID.TID 0000.0001)     ;
(PID.TID 0000.0001) dyG =  /* dyG(1,:,1,:) ( units: m ) */
(PID.TID 0000.0001)    32 @  1.000000000000000E+05              /* J =  1: 32 */
(PID.TID 0000.0001)     ;
(PID.TID 0000.0001) dxC =  /* dxC(:,1,:,1) ( units: m ) */
(PID.TID 0000.0001)                 1.000000000000000E+05       /* I =  1 */
(PID.TID 0000.0001)     ;
(PID.TID 0000.0001) dxC =  /* dxC(1,:,1,:) ( units: m ) */
(PID.TID 0000.0001)    32 @  1.000000000000000E+05              /* J =  1: 32 */
(PID.TID 0000.0001)     ;
(PID.TID 0000.0001) dyC =  /* dyC(:,1,:,1) ( units: m ) */
(PID.TID 0000.0001)                 1.000000000000000E+05       /* I =  1 */
(PID.TID 0000.0001)     ;
(PID.TID 0000.0001) dyC =  /* dyC(1,:,1,:) ( units: m ) */
(PID.TID 0000.0001)    32 @  1.000000000000000E+05              /* J =  1: 32 */
(PID.TID 0000.0001)     ;
(PID.TID 0000.0001) dxV =  /* dxV(:,1,:,1) ( units: m ) */
(PID.TID 0000.0001)                 1.000000000000000E+05       /* I =  1 */
(PID.TID 0000.0001)     ;
(PID.TID 0000.0001) dxV =  /* dxV(1,:,1,:) ( units: m ) */
(PID.TID 0000.0001)    32 @  1.000000000000000E+05              /* J =  1: 32 */
(PID.TID 0000.0001)     ;
(PID.TID 0000.0001) dyU =  /* dyU(:,1,:,1) ( units: m ) */
(PID.TID 0000.0001)                 1.000000000000000E+05       /* I =  1 */
(PID.TID 0000.0001)     ;
(PID.TID 0000.0001) dyU =  /* dyU(1,:,1,:) ( units: m ) */
(PID.TID 0000.0001)    32 @  1.000000000000000E+05              /* J =  1: 32 */
(PID.TID 0000.0001)     ;
(PID.TID 0000.0001) rA  =  /* rA (:,1,:,1) ( units: m^2 ) */
(PID.TID 0000.0001)                 1.000000000000000E+10       /* I =  1 */
(PID.TID 0000.0001)     ;
(PID.TID 0000.0001) rA  =  /* rA (1,:,1,:) ( units: m^2 ) */
(PID.TID 0000.0001)    32 @  1.000000000000000E+10              /* J =  1: 32 */
(PID.TID 0000.0001)     ;
(PID.TID 0000.0001) rAw =  /* rAw(:,1,:,1) ( units: m^2 ) */
(PID.TID 0000.0001)                 1.000000000000000E+10       /* I =  1 */
(PID.TID 0000.0001)     ;
(PID.TID 0000.0001) rAw =  /* rAw(1,:,1,:) ( units: m^2 ) */
(PID.TID 0000.0001)    32 @  1.000000000000000E+10              /* J =  1: 32 */
(PID.TID 0000.0001)     ;
(PID.TID 0000.0001) rAs =  /* rAs(:,1,:,1) ( units: m^2 ) */
(PID.TID 0000.0001)                 1.000000000000000E+10       /* I =  1 */
(PID.TID 0000.0001)     ;
(PID.TID 0000.0001) rAs =  /* rAs(1,:,1,:) ( units: m^2 ) */
(PID.TID 0000.0001)    32 @  1.000000000000000E+10              /* J =  1: 32 */
(PID.TID 0000.0001)     ;
(PID.TID 0000.0001) globalArea = /* Integrated horizontal Area (m^2) */
(PID.TID 0000.0001)                 3.000000000000000E+11
(PID.TID 0000.0001)     ;
(PID.TID 0000.0001) // =======================================================
(PID.TID 0000.0001) // End of Model config. summary
(PID.TID 0000.0001) // =======================================================
(PID.TID 0000.0001) 
(PID.TID 0000.0001) == Packages configuration : Check & print summary ==
(PID.TID 0000.0001) 
(PID.TID 0000.0001) GMREDI_CHECK: #define GMREDI
(PID.TID 0000.0001) GM_AdvForm =     /* if FALSE => use SkewFlux Form */
(PID.TID 0000.0001)                   T
(PID.TID 0000.0001)     ;
(PID.TID 0000.0001) GM_InMomAsStress = /* if TRUE => apply as Eddy Stress */
(PID.TID 0000.0001)                   F
(PID.TID 0000.0001)     ;
(PID.TID 0000.0001) GM_AdvSeparate = /* Calc Bolus & Euler Adv. separately */
(PID.TID 0000.0001)                   F
(PID.TID 0000.0001)     ;
(PID.TID 0000.0001) GM_ExtraDiag =   /* Tensor Extra Diag (line 1&2) non 0 */
(PID.TID 0000.0001)                   T
(PID.TID 0000.0001)     ;
(PID.TID 0000.0001) GM_isopycK =    /* Background Isopyc. Diffusivity [m^2/s] */
(PID.TID 0000.0001)                 1.000000000000000E+03
(PID.TID 0000.0001)     ;
(PID.TID 0000.0001) GM_skewflx*K =  /* Background GM_SkewFlx Diffusivity [m^2/s] */
(PID.TID 0000.0001)                 0.000000000000000E+00
(PID.TID 0000.0001)     ;
(PID.TID 0000.0001) GM_advec*K =    /* Backg. GM-Advec(=Bolus) Diffusivity [m^2/s]*/
(PID.TID 0000.0001)                 1.000000000000000E+03
(PID.TID 0000.0001)     ;
(PID.TID 0000.0001) GM_Kmin_horiz = /* Minimum Horizontal Diffusivity [m^2/s] */
(PID.TID 0000.0001)                 0.000000000000000E+00
(PID.TID 0000.0001)     ;
(PID.TID 0000.0001) GM_Visbeck_alpha = /* Visbeck alpha coeff. [-] */
(PID.TID 0000.0001)                 0.000000000000000E+00
(PID.TID 0000.0001)     ;
(PID.TID 0000.0001) GM_Small_Number =  /* epsilon used in slope calc */
(PID.TID 0000.0001)                 9.999999999999999E-21
(PID.TID 0000.0001)     ;
(PID.TID 0000.0001) GM_slopeSqCutoff = /* Slope^2 cut-off value */
(PID.TID 0000.0001)                 1.000000000000000E+48
(PID.TID 0000.0001)     ;
(PID.TID 0000.0001) GM_taper_scheme =  /* Type of Tapering/Clipping scheme */
(PID.TID 0000.0001)               'linear                                  '
(PID.TID 0000.0001)     ;
(PID.TID 0000.0001) GM_maxSlope =  /* Maximum Slope (Tapering/Clipping) */
(PID.TID 0000.0001)                 1.000000000000000E-02
(PID.TID 0000.0001)     ;
(PID.TID 0000.0001) GM_facTrL2dz = /* Minimum Trans.Layer Thick. (factor of dz) */
(PID.TID 0000.0001)                 0.000000000000000E+00
(PID.TID 0000.0001)     ;
(PID.TID 0000.0001) GM_facTrL2ML = /* Max.Trans.Layer Thick. (factor of MxL Depth)*/
(PID.TID 0000.0001)                 5.000000000000000E+00
(PID.TID 0000.0001)     ;
(PID.TID 0000.0001) GM_maxTransLay = /* Maximum Transition Layer Thickness [m] */
(PID.TID 0000.0001)                 5.000000000000000E+02
(PID.TID 0000.0001)     ;
(PID.TID 0000.0001) GM_UseBVP = /* if TRUE => use bvp a la Ferrari et al. (2010) */
(PID.TID 0000.0001)                   T
(PID.TID 0000.0001)     ;
(PID.TID 0000.0001) GM_BVP_ModeNumber = /* Vertical mode number for BVP wave speed */
(PID.TID 0000.0001)                       1
(PID.TID 0000.0001)     ;
(PID.TID 0000.0001) GM_BVP_cMin = /* Minimum wave speed for BVP [m/s] */
(PID.TID 0000.0001)                 1.000000000000000E-01
(PID.TID 0000.0001)     ;
(PID.TID 0000.0001) GM_useSubMeso = /* if TRUE => use Sub-Meso param. (B.Fox-Kemper) */
(PID.TID 0000.0001)                   T
(PID.TID 0000.0001)     ;
(PID.TID 0000.0001) subMeso_Ceff = /* efficiency coeff. of Mixed-Layer Eddies [-] */
(PID.TID 0000.0001)                 7.000000000000001E-02
(PID.TID 0000.0001)     ;
(PID.TID 0000.0001) subMeso_invTau = /* inverse of Sub-Meso mixing time-scale [/s] */
(PID.TID 0000.0001)                 2.000000000000000E-06
(PID.TID 0000.0001)     ;
(PID.TID 0000.0001) subMeso_LfMin = /* minimum length-scale "Lf" [m] */
(PID.TID 0000.0001)                 1.000000000000000E+03
(PID.TID 0000.0001)     ;
(PID.TID 0000.0001) subMeso_Lmax = /* maximum grid-scale length [m] */
(PID.TID 0000.0001)                 1.100000000000000E+05
(PID.TID 0000.0001)     ;
(PID.TID 0000.0001) GAD_CHECK: #define ALLOW_GENERIC_ADVDIFF
(PID.TID 0000.0001) // =======================================================
(PID.TID 0000.0001) // CONFIG_CHECK : Normal End
(PID.TID 0000.0001) // =======================================================
(PID.TID 0000.0001) 
(PID.TID 0000.0001)  MDS_READ_FIELD: opening global file: u_ini.bin
(PID.TID 0000.0001)  MDS_READ_FIELD: opening global file: t_ini.bin
(PID.TID 0000.0001)  MDS_READ_FIELD: opening global file: s_ini.bin
(PID.TID 0000.0001) Start initial hydrostatic pressure computation
(PID.TID 0000.0001) Pressure is predetermined for buoyancyRelation OCEANIC
(PID.TID 0000.0001) 
(PID.TID 0000.0001)  write diagnostics summary to file ioUnit:      6
Iter.Nb:         0 ; Time(s):  0.0000000000000E+00
------------------------------------------------------------------------
2D/3D diagnostics: Number of lists:     2
------------------------------------------------------------------------
listId=    1 ; file name: surfDiag
 nFlds, nActive,       freq     &     phase        , nLev               
    8  |    8  |    -86400.000000         0.000000 |   1
 levels:   1
 diag# | name   |   ipt  |  iMate | kLev|   count |   mate.C|           
    23 |ETAN    |      1 |      0 |   1 |       0 |
    25 |DETADT2 |      2 |      0 |   1 |       0 |
    71 |PHIBOT  |      3 |      0 |   1 |       0 |
    73 |MXLDEPTH|      4 |      0 |   1 |       0 |
   195 |GM_BVPcW|      5 |      6 |   1 |       0 |       0 |
   196 |GM_BVPcS|      6 |      5 |   1 |       0 |       0 |
   179 |SubMesLf|      7 |      0 |   1 |       0 |
   181 |SubMpsiY|      8 |      0 |   1 |       0 |
------------------------------------------------------------------------
listId=    2 ; file name: oceDiag
 nFlds, nActive,       freq     &     phase        , nLev               
    8  |    8  |    -86400.000000         0.000000 |  25
 levels:   1   2   3   4   5   6   7   8   9  10  11  12  13  14  15  16  17  18  19  20  21  22  23  24  25
 diag# | name   |   ipt  |  iMate | kLev|   count |   mate.C|           
    74 |DRHODR  |      9 |      0 |  25 |       0 |
    64 |RHOAnoma|     34 |      0 |  25 |       0 |
   187 |GM_Kwy  |     59 |      0 |  25 |       0 |
   188 |GM_Kwz  |     84 |      0 |  25 |       0 |
   183 |GM_Kvy  |    109 |      0 |  25 |       0 |
    26 |THETA   |    134 |      0 |  25 |       0 |
   190 |GM_PsiY |    159 |      0 |  25 |       0 |
   185 |GM_Kvz  |    184 |      0 |  25 |       0 |
------------------------------------------------------------------------
Global & Regional Statistics diagnostics: Number of lists:     1
------------------------------------------------------------------------
listId=   1 ; file name: dynStDiag
 nFlds, nActive,       freq     &     phase        |                    
   13  |   13  |     18000.000000         0.000000 |
 Regions:   0
 diag# | name   |   ipt  |  iMate |    Volume   |   mate-Vol. |         
    23 |ETAN    |      1 |      0 | 0.00000E+00 |
    30 |UVEL    |      2 |      0 | 0.00000E+00 |
    31 |VVEL    |     27 |      0 | 0.00000E+00 |
    32 |WVEL    |     52 |      0 | 0.00000E+00 |
    26 |THETA   |     77 |      0 | 0.00000E+00 |
    73 |MXLDEPTH|    102 |      0 | 0.00000E+00 |
   179 |SubMesLf|    103 |      0 | 0.00000E+00 |
   181 |SubMpsiY|    104 |      0 | 0.00000E+00 |
   190 |GM_PsiY |    105 |      0 | 0.00000E+00 |
   187 |GM_Kwy  |    130 |      0 | 0.00000E+00 |
   188 |GM_Kwz  |    155 |      0 | 0.00000E+00 |
   183 |GM_Kvy  |    180 |      0 | 0.00000E+00 |
   185 |GM_Kvz  |    205 |      0 | 0.00000E+00 |
------------------------------------------------------------------------
(PID.TID 0000.0001) // =======================================================
(PID.TID 0000.0001) // Model current state
(PID.TID 0000.0001) // =======================================================
(PID.TID 0000.0001) 
(PID.TID 0000.0001) // =======================================================
(PID.TID 0000.0001) // Begin MONITOR dynamic field statistics
(PID.TID 0000.0001) // =======================================================
(PID.TID 0000.0001) %MON time_tsnumber                =                     0
(PID.TID 0000.0001) %MON time_secondsf                =   0.0000000000000E+00
(PID.TID 0000.0001) %MON dynstat_eta_max              =   0.0000000000000E+00
(PID.TID 0000.0001) %MON dynstat_eta_min              =   0.0000000000000E+00
(PID.TID 0000.0001) %MON dynstat_eta_mean             =   0.0000000000000E+00
(PID.TID 0000.0001) %MON dynstat_eta_sd               =   0.0000000000000E+00
(PID.TID 0000.0001) %MON dynstat_eta_del2             =   0.0000000000000E+00
(PID.TID 0000.0001) %MON dynstat_uvel_max             =   1.2708890949034E-01
(PID.TID 0000.0001) %MON dynstat_uvel_min             =  -1.2708890949034E-01
(PID.TID 0000.0001) %MON dynstat_uvel_mean            =  -5.4975756068516E-06
(PID.TID 0000.0001) %MON dynstat_uvel_sd              =   2.0322315569060E-02
(PID.TID 0000.0001) %MON dynstat_uvel_del2            =   5.0509287841793E-04
(PID.TID 0000.0001) %MON dynstat_vvel_max             =   0.0000000000000E+00
(PID.TID 0000.0001) %MON dynstat_vvel_min             =   0.0000000000000E+00
(PID.TID 0000.0001) %MON dynstat_vvel_mean            =   0.0000000000000E+00
(PID.TID 0000.0001) %MON dynstat_vvel_sd              =   0.0000000000000E+00
(PID.TID 0000.0001) %MON dynstat_vvel_del2            =   0.0000000000000E+00
(PID.TID 0000.0001) %MON dynstat_wvel_max             =  -0.0000000000000E+00
(PID.TID 0000.0001) %MON dynstat_wvel_min             =  -0.0000000000000E+00
(PID.TID 0000.0001) %MON dynstat_wvel_mean            =   0.0000000000000E+00
(PID.TID 0000.0001) %MON dynstat_wvel_sd              =   0.0000000000000E+00
(PID.TID 0000.0001) %MON dynstat_wvel_del2            =   0.0000000000000E+00
(PID.TID 0000.0001) %MON dynstat_theta_max            =   1.3324548570971E+01
(PID.TID 0000.0001) %MON dynstat_theta_min            =   6.2538226645252E+00
(PID.TID 0000.0001) %MON dynstat_theta_mean           =   8.4642401720337E+00
(PID.TID 0000.0001) %MON dynstat_theta_sd             =   1.4059935903981E+00
(PID.TID 0000.0001) %MON dynstat_theta_del2           =   7.4185613820284E-03
(PID.TID 0000.0001) %MON dynstat_salt_max             =   1.1996530790116E+01
(PID.TID 0000.0001) %MON dynstat_salt_min             =   1.0464440295541E+01
(PID.TID 0000.0001) %MON dynstat_salt_mean            =   1.1308841661162E+01
(PID.TID 0000.0001) %MON dynstat_salt_sd              =   5.1722696788685E-01
(PID.TID 0000.0001) %MON dynstat_salt_del2            =   5.6431444333042E-04
(PID.TID 0000.0001) %MON advcfl_uvel_max              =   4.5752007416521E-03
(PID.TID 0000.0001) %MON advcfl_vvel_max              =   0.0000000000000E+00
(PID.TID 0000.0001) %MON advcfl_wvel_max              =   0.0000000000000E+00
(PID.TID 0000.0001) %MON advcfl_W_hf_max              =   0.0000000000000E+00
(PID.TID 0000.0001) %MON pe_b_mean                    =   0.0000000000000E+00
(PID.TID 0000.0001) %MON ke_max                       =   8.0757954577213E-03
(PID.TID 0000.0001) %MON ke_mean                      =   2.0649827015589E-04
(PID.TID 0000.0001) %MON ke_vol                       =   5.0981346415358E+14
(PID.TID 0000.0001) // =======================================================
(PID.TID 0000.0001) // End MONITOR dynamic field statistics
(PID.TID 0000.0001) // =======================================================
(PID.TID 0000.0001) SOLVE_FOR_PRESSURE: putPmEinXvector =    F
 cg2d: Sum(rhs),rhsMax =  -2.42542802248585E-16  7.84478485396824E-01
(PID.TID 0000.0001)                    cg2d_init_res =    1.84632981170703E+00
(PID.TID 0000.0001)                       cg2d_iters =    28
(PID.TID 0000.0001)                         cg2d_res =    4.10145676628236E-15
(PID.TID 0000.0001) // =======================================================
(PID.TID 0000.0001) // Begin MONITOR dynamic field statistics
(PID.TID 0000.0001) // =======================================================
(PID.TID 0000.0001) %MON time_tsnumber                =                     1
(PID.TID 0000.0001) %MON time_secondsf                =   3.6000000000000E+03
(PID.TID 0000.0001) %MON dynstat_eta_max              =   2.6931460151444E-01
(PID.TID 0000.0001) %MON dynstat_eta_min              =  -7.6771771361424E-02
(PID.TID 0000.0001) %MON dynstat_eta_mean             =   2.7592976888021E-16
(PID.TID 0000.0001) %MON dynstat_eta_sd               =   9.6792993958634E-02
(PID.TID 0000.0001) %MON dynstat_eta_del2             =   5.2210367225506E-03
(PID.TID 0000.0001) %MON dynstat_uvel_max             =   1.2708190064387E-01
(PID.TID 0000.0001) %MON dynstat_uvel_min             =  -1.2708190064387E-01
(PID.TID 0000.0001) %MON dynstat_uvel_mean            =  -5.6067134589115E-06
(PID.TID 0000.0001) %MON dynstat_uvel_sd              =   2.0322249914812E-02
(PID.TID 0000.0001) %MON dynstat_uvel_del2            =   5.0509041366132E-04
(PID.TID 0000.0001) %MON dynstat_vvel_max             =   9.2876133483272E-03
(PID.TID 0000.0001) %MON dynstat_vvel_min             =  -1.0028149377893E-02
(PID.TID 0000.0001) %MON dynstat_vvel_mean            =   4.7877125289136E-04
(PID.TID 0000.0001) %MON dynstat_vvel_sd              =   5.0967848889294E-03
(PID.TID 0000.0001) %MON dynstat_vvel_del2            =   3.6844455694336E-05
(PID.TID 0000.0001) %MON dynstat_wvel_max             =   7.4809611531787E-05
(PID.TID 0000.0001) %MON dynstat_wvel_min             =  -2.1325492044839E-05
(PID.TID 0000.0001) %MON dynstat_wvel_mean            =   3.0762417435869E-23
(PID.TID 0000.0001) %MON dynstat_wvel_sd              =   1.7338367110351E-05
(PID.TID 0000.0001) %MON dynstat_wvel_del2            =   3.0975995090818E-07
(PID.TID 0000.0001) %MON dynstat_theta_max            =   1.3325043260481E+01
(PID.TID 0000.0001) %MON dynstat_theta_min            =   6.2538231167499E+00
(PID.TID 0000.0001) %MON dynstat_theta_mean           =   8.4642401720337E+00
(PID.TID 0000.0001) %MON dynstat_theta_sd             =   1.4059933615263E+00
(PID.TID 0000.0001) %MON dynstat_theta_del2           =   7.4178854125315E-03
(PID.TID 0000.0001) %MON dynstat_salt_max             =   1.1996554616262E+01
(PID.TID 0000.0001) %MON dynstat_salt_min             =   1.0464446045175E+01
(PID.TID 0000.0001) %MON dynstat_salt_mean            =   1.1308841661162E+01
(PID.TID 0000.0001) %MON dynstat_salt_sd              =   5.1721897596559E-01
(PID.TID 0000.0001) %MON dynstat_salt_del2            =   5.6436130951725E-04
(PID.TID 0000.0001) %MON advcfl_uvel_max              =   4.5749484231792E-03
(PID.TID 0000.0001) %MON advcfl_vvel_max              =   3.6101337760413E-04
(PID.TID 0000.0001) %MON advcfl_wvel_max              =   2.6931460151443E-02
(PID.TID 0000.0001) %MON advcfl_W_hf_max              =   1.3422655951557E-02
(PID.TID 0000.0001) %MON pe_b_mean                    =   2.7041875712792E-05
(PID.TID 0000.0001) %MON ke_max                       =   8.0898330519274E-03
(PID.TID 0000.0001) %MON ke_mean                      =   2.1908618334722E-04
(PID.TID 0000.0001) %MON ke_vol                       =   5.0981346415358E+14
(PID.TID 0000.0001) // =======================================================
(PID.TID 0000.0001) // End MONITOR dynamic field statistics
(PID.TID 0000.0001) // =======================================================
 Computing Diagnostic #     23  ETAN         Counter:       1   Parms: SM      M1      
 Computing Diagnostic #     25  DETADT2      Counter:       1   Parms: SM      M1      
 Computing Diagnostic #     71  PHIBOT       Counter:       1   Parms: SM      M1      
 Computing Diagnostic #     73  MXLDEPTH     Counter:       1   Parms: SM      M1      
 Computing Diagnostic #    195  GM_BVPcW     Counter:       1   Parms: SU P    M1      
 Computing Diagnostic #    196  GM_BVPcS     Counter:       1   Parms: SV P    M1      
 Computing Diagnostic #    179  SubMesLf     Counter:       1   Parms: SM P    M1      
 Computing Diagnostic #    181  SubMpsiY     Counter:       1   Parms: VV      M1      
           Vector  Mate for  SubMpsiY     Diagnostic #    180  SubMpsiX not enabled
 Computing Diagnostic #     74  DRHODR       Counter:       1   Parms: SM      LR      
 Computing Diagnostic #     64  RHOAnoma     Counter:       1   Parms: SMR     MR      
 Computing Diagnostic #    187  GM_Kwy       Counter:       1   Parms: VM      LR      
           Vector  Mate for  GM_Kwy       Diagnostic #    186  GM_Kwx   not enabled
 Computing Diagnostic #    188  GM_Kwz       Counter:       1   Parms: WM P    LR      
 Computing Diagnostic #    183  GM_Kvy       Counter:       1   Parms: VV P    MR      
           Vector  Mate for  GM_Kvy       Diagnostic #    182  GM_Kux   not enabled
 Computing Diagnostic #     26  THETA        Counter:       1   Parms: SMR     MR      
 Computing Diagnostic #    190  GM_PsiY      Counter:       1   Parms: VV      LR      
           Vector  Mate for  GM_PsiY      Diagnostic #    189  GM_PsiX  not enabled
 Computing Diagnostic #    185  GM_Kvz       Counter:       1   Parms: VV      MR      
           Vector  Mate for  GM_Kvz       Diagnostic #    184  GM_Kuz   not enabled
 cg2d: Sum(rhs),rhsMax =  -2.85535484145782E-15  9.91836551001541E-01
(PID.TID 0000.0001)                    cg2d_init_res =    4.11600372226235E-01
(PID.TID 0000.0001)                       cg2d_iters =    28
(PID.TID 0000.0001)                         cg2d_res =    2.62670801782729E-16
(PID.TID 0000.0001) // =======================================================
(PID.TID 0000.0001) // Begin MONITOR dynamic field statistics
(PID.TID 0000.0001) // =======================================================
(PID.TID 0000.0001) %MON time_tsnumber                =                     2
(PID.TID 0000.0001) %MON time_secondsf                =   7.2000000000000E+03
(PID.TID 0000.0001) %MON dynstat_eta_max              =   4.0024108486617E-01
(PID.TID 0000.0001) %MON dynstat_eta_min              =  -9.7666405646473E-02
(PID.TID 0000.0001) %MON dynstat_eta_mean             =   3.2202402750651E-16
(PID.TID 0000.0001) %MON dynstat_eta_sd               =   1.5214466646042E-01
(PID.TID 0000.0001) %MON dynstat_eta_del2             =   6.3121292462564E-03
(PID.TID 0000.0001) %MON dynstat_uvel_max             =   1.2417841485456E-01
(PID.TID 0000.0001) %MON dynstat_uvel_min             =  -1.2452023978655E-01
(PID.TID 0000.0001) %MON dynstat_uvel_mean            =   2.5984572113800E-04
(PID.TID 0000.0001) %MON dynstat_uvel_sd              =   1.9217061404394E-02
(PID.TID 0000.0001) %MON dynstat_uvel_del2            =   5.0654330806929E-04
(PID.TID 0000.0001) %MON dynstat_vvel_max             =   8.4003363768379E-03
(PID.TID 0000.0001) %MON dynstat_vvel_min             =  -9.5133018179838E-03
(PID.TID 0000.0001) %MON dynstat_vvel_mean            =   3.0177104654332E-04
(PID.TID 0000.0001) %MON dynstat_vvel_sd              =   4.6537545361737E-03
(PID.TID 0000.0001) %MON dynstat_vvel_del2            =   6.7845135649907E-05
(PID.TID 0000.0001) %MON dynstat_wvel_max             =   4.3781047661656E-05
(PID.TID 0000.0001) %MON dynstat_wvel_min             =  -1.4648094504741E-05
(PID.TID 0000.0001) %MON dynstat_wvel_mean            =  -7.6906043589672E-23
(PID.TID 0000.0001) %MON dynstat_wvel_sd              =   1.2311183308266E-05
(PID.TID 0000.0001) %MON dynstat_wvel_del2            =   2.6599520637961E-07
(PID.TID 0000.0001) %MON dynstat_theta_max            =   1.3325302449142E+01
(PID.TID 0000.0001) %MON dynstat_theta_min            =   6.2538305570751E+00
(PID.TID 0000.0001) %MON dynstat_theta_mean           =   8.4641423703376E+00
(PID.TID 0000.0001) %MON dynstat_theta_sd             =   1.4057879242081E+00
(PID.TID 0000.0001) %MON dynstat_theta_del2           =   7.4133350606528E-03
(PID.TID 0000.0001) %MON dynstat_salt_max             =   1.1996573839041E+01
(PID.TID 0000.0001) %MON dynstat_salt_min             =   1.0464448766464E+01
(PID.TID 0000.0001) %MON dynstat_salt_mean            =   1.1308818038425E+01
(PID.TID 0000.0001) %MON dynstat_salt_sd              =   5.1720192945502E-01
(PID.TID 0000.0001) %MON dynstat_salt_del2            =   5.6440765640379E-04
(PID.TID 0000.0001) %MON advcfl_uvel_max              =   4.4827286323158E-03
(PID.TID 0000.0001) %MON advcfl_vvel_max              =   3.4247886544742E-04
(PID.TID 0000.0001) %MON advcfl_wvel_max              =   1.3268369369414E-02
(PID.TID 0000.0001) %MON advcfl_W_hf_max              =   7.6052276078812E-03
(PID.TID 0000.0001) %MON pe_b_mean                    =   6.6813224261165E-05
(PID.TID 0000.0001) %MON ke_max                       =   7.7622384547387E-03
(PID.TID 0000.0001) %MON ke_mean                      =   1.9512919181197E-04
(PID.TID 0000.0001) %MON ke_vol                       =   5.0981346415358E+14
(PID.TID 0000.0001) // =======================================================
(PID.TID 0000.0001) // End MONITOR dynamic field statistics
(PID.TID 0000.0001) // =======================================================
 cg2d: Sum(rhs),rhsMax =  -4.39925873507718E-15  9.55395371614321E-01
(PID.TID 0000.0001)                    cg2d_init_res =    1.49790400077985E-01
(PID.TID 0000.0001)                       cg2d_iters =    27
(PID.TID 0000.0001)                         cg2d_res =    5.67628645225094E-14
(PID.TID 0000.0001) // =======================================================
(PID.TID 0000.0001) // Begin MONITOR dynamic field statistics
(PID.TID 0000.0001) // =======================================================
(PID.TID 0000.0001) %MON time_tsnumber                =                     3
(PID.TID 0000.0001) %MON time_secondsf                =   1.0800000000000E+04
(PID.TID 0000.0001) %MON dynstat_eta_max              =   4.1112345615925E-01
(PID.TID 0000.0001) %MON dynstat_eta_min              =  -1.1122766970066E-01
(PID.TID 0000.0001) %MON dynstat_eta_mean             =   3.5349527994792E-16
(PID.TID 0000.0001) %MON dynstat_eta_sd               =   1.6156406911565E-01
(PID.TID 0000.0001) %MON dynstat_eta_del2             =   5.9245813473787E-03
(PID.TID 0000.0001) %MON dynstat_uvel_max             =   1.2631291684711E-01
(PID.TID 0000.0001) %MON dynstat_uvel_min             =  -1.2696323531050E-01
(PID.TID 0000.0001) %MON dynstat_uvel_mean            =   3.2777401894848E-04
(PID.TID 0000.0001) %MON dynstat_uvel_sd              =   1.9426832465350E-02
(PID.TID 0000.0001) %MON dynstat_uvel_del2            =   5.2917751476731E-04
(PID.TID 0000.0001) %MON dynstat_vvel_max             =   1.2509693954720E-02
(PID.TID 0000.0001) %MON dynstat_vvel_min             =  -1.3735317576639E-02
(PID.TID 0000.0001) %MON dynstat_vvel_mean            =  -1.8275098405777E-04
(PID.TID 0000.0001) %MON dynstat_vvel_sd              =   2.4652321314273E-03
(PID.TID 0000.0001) %MON dynstat_vvel_del2            =   9.5903354241018E-05
(PID.TID 0000.0001) %MON dynstat_wvel_max             =   2.5508644210311E-05
(PID.TID 0000.0001) %MON dynstat_wvel_min             =  -2.0674881752306E-05
(PID.TID 0000.0001) %MON dynstat_wvel_mean            =  -1.3074027410244E-22
(PID.TID 0000.0001) %MON dynstat_wvel_sd              =   8.2339815085845E-06
(PID.TID 0000.0001) %MON dynstat_wvel_del2            =   3.4631069303858E-07
(PID.TID 0000.0001) %MON dynstat_theta_max            =   1.3325714780431E+01
(PID.TID 0000.0001) %MON dynstat_theta_min            =   6.2538410717008E+00
(PID.TID 0000.0001) %MON dynstat_theta_mean           =   8.4641180473910E+00
(PID.TID 0000.0001) %MON dynstat_theta_sd             =   1.4057438295357E+00
(PID.TID 0000.0001) %MON dynstat_theta_del2           =   7.4117039745927E-03
(PID.TID 0000.0001) %MON dynstat_salt_max             =   1.1996594602068E+01
(PID.TID 0000.0001) %MON dynstat_salt_min             =   1.0464137649054E+01
(PID.TID 0000.0001) %MON dynstat_salt_mean            =   1.1308801671048E+01
(PID.TID 0000.0001) %MON dynstat_salt_sd              =   5.1719412143493E-01
(PID.TID 0000.0001) %MON dynstat_salt_del2            =   5.6452165447356E-04
(PID.TID 0000.0001) %MON advcfl_uvel_max              =   4.5706764711778E-03
(PID.TID 0000.0001) %MON advcfl_vvel_max              =   4.9447143275901E-04
(PID.TID 0000.0001) %MON advcfl_wvel_max              =   3.4895758788041E-03
(PID.TID 0000.0001) %MON advcfl_W_hf_max              =   2.8977744412111E-03
(PID.TID 0000.0001) %MON pe_b_mean                    =   7.5342240474857E-05
(PID.TID 0000.0001) %MON ke_max                       =   8.1134454113230E-03
(PID.TID 0000.0001) %MON ke_mean                      =   1.9169016434764E-04
(PID.TID 0000.0001) %MON ke_vol                       =   5.0981346415358E+14
(PID.TID 0000.0001) // =======================================================
(PID.TID 0000.0001) // End MONITOR dynamic field statistics
(PID.TID 0000.0001) // =======================================================
 cg2d: Sum(rhs),rhsMax =  -4.28129753871076E-15  9.20894515816434E-01
(PID.TID 0000.0001)                    cg2d_init_res =    9.13506288238030E-02
(PID.TID 0000.0001)                       cg2d_iters =    28
(PID.TID 0000.0001)                         cg2d_res =    3.23734083719361E-16
(PID.TID 0000.0001) // =======================================================
(PID.TID 0000.0001) // Begin MONITOR dynamic field statistics
(PID.TID 0000.0001) // =======================================================
(PID.TID 0000.0001) %MON time_tsnumber                =                     4
(PID.TID 0000.0001) %MON time_secondsf                =   1.4400000000000E+04
(PID.TID 0000.0001) %MON dynstat_eta_max              =   3.8572487734221E-01
(PID.TID 0000.0001) %MON dynstat_eta_min              =  -9.9989599285516E-02
(PID.TID 0000.0001) %MON dynstat_eta_mean             =   6.1353047688802E-16
(PID.TID 0000.0001) %MON dynstat_eta_sd               =   1.5003987460222E-01
(PID.TID 0000.0001) %MON dynstat_eta_del2             =   5.7526890431795E-03
(PID.TID 0000.0001) %MON dynstat_uvel_max             =   1.3067117692458E-01
(PID.TID 0000.0001) %MON dynstat_uvel_min             =  -1.3181464814132E-01
(PID.TID 0000.0001) %MON dynstat_uvel_mean            =   1.6323213919648E-04
(PID.TID 0000.0001) %MON dynstat_uvel_sd              =   2.0054786435526E-02
(PID.TID 0000.0001) %MON dynstat_uvel_del2            =   5.5672746595574E-04
(PID.TID 0000.0001) %MON dynstat_vvel_max             =   1.5520052300488E-02
(PID.TID 0000.0001) %MON dynstat_vvel_min             =  -1.7355603241004E-02
(PID.TID 0000.0001) %MON dynstat_vvel_mean            =  -4.1072858345038E-04
(PID.TID 0000.0001) %MON dynstat_vvel_sd              =   2.2221099559300E-03
(PID.TID 0000.0001) %MON dynstat_vvel_del2            =   1.1339589538949E-04
(PID.TID 0000.0001) %MON dynstat_wvel_max             =   2.1967536019685E-05
(PID.TID 0000.0001) %MON dynstat_wvel_min             =  -3.1411394011204E-05
(PID.TID 0000.0001) %MON dynstat_wvel_mean            =   2.7686175692282E-22
(PID.TID 0000.0001) %MON dynstat_wvel_sd              =   9.2466032479609E-06
(PID.TID 0000.0001) %MON dynstat_wvel_del2            =   4.2815783781938E-07
(PID.TID 0000.0001) %MON dynstat_theta_max            =   1.3326152998391E+01
(PID.TID 0000.0001) %MON dynstat_theta_min            =   6.2538428169582E+00
(PID.TID 0000.0001) %MON dynstat_theta_mean           =   8.4641311505136E+00
(PID.TID 0000.0001) %MON dynstat_theta_sd             =   1.4057718330992E+00
(PID.TID 0000.0001) %MON dynstat_theta_del2           =   7.4096670378501E-03
(PID.TID 0000.0001) %MON dynstat_salt_max             =   1.1996614702082E+01
(PID.TID 0000.0001) %MON dynstat_salt_min             =   1.0463921353575E+01
(PID.TID 0000.0001) %MON dynstat_salt_mean            =   1.1308801388179E+01
(PID.TID 0000.0001) %MON dynstat_salt_sd              =   5.1718894159573E-01
(PID.TID 0000.0001) %MON dynstat_salt_del2            =   5.6468606874617E-04
(PID.TID 0000.0001) %MON advcfl_uvel_max              =   4.7453273330874E-03
(PID.TID 0000.0001) %MON advcfl_vvel_max              =   6.2480171667613E-04
(PID.TID 0000.0001) %MON advcfl_wvel_max              =   3.4622380480913E-03
(PID.TID 0000.0001) %MON advcfl_W_hf_max              =   3.6860319590923E-03
(PID.TID 0000.0001) %MON pe_b_mean                    =   6.4977403132752E-05
(PID.TID 0000.0001) %MON ke_max                       =   8.7772285733215E-03
(PID.TID 0000.0001) %MON ke_mean                      =   2.0356363681036E-04
(PID.TID 0000.0001) %MON ke_vol                       =   5.0981346415358E+14
(PID.TID 0000.0001) // =======================================================
(PID.TID 0000.0001) // End MONITOR dynamic field statistics
(PID.TID 0000.0001) // =======================================================
 cg2d: Sum(rhs),rhsMax =  -7.56339435525888E-15  9.03555703676650E-01
(PID.TID 0000.0001)                    cg2d_init_res =    8.17363912132795E-02
(PID.TID 0000.0001)                       cg2d_iters =    28
(PID.TID 0000.0001)                         cg2d_res =    2.31078546269298E-16
(PID.TID 0000.0001) // =======================================================
(PID.TID 0000.0001) // Begin MONITOR dynamic field statistics
(PID.TID 0000.0001) // =======================================================
(PID.TID 0000.0001) %MON time_tsnumber                =                     5
(PID.TID 0000.0001) %MON time_secondsf                =   1.8000000000000E+04
(PID.TID 0000.0001) %MON dynstat_eta_max              =   3.6042233029983E-01
(PID.TID 0000.0001) %MON dynstat_eta_min              =  -7.8086503299669E-02
(PID.TID 0000.0001) %MON dynstat_eta_mean             =   8.6752573649089E-16
(PID.TID 0000.0001) %MON dynstat_eta_sd               =   1.3661225528252E-01
(PID.TID 0000.0001) %MON dynstat_eta_del2             =   5.7473432390733E-03
(PID.TID 0000.0001) %MON dynstat_uvel_max             =   1.3517228574088E-01
(PID.TID 0000.0001) %MON dynstat_uvel_min             =  -1.3696626845654E-01
(PID.TID 0000.0001) %MON dynstat_uvel_mean            =  -2.7369470802739E-05
(PID.TID 0000.0001) %MON dynstat_uvel_sd              =   2.0648318371101E-02
(PID.TID 0000.0001) %MON dynstat_uvel_del2            =   5.8488539375300E-04
(PID.TID 0000.0001) %MON dynstat_vvel_max             =   1.6018748967107E-02
(PID.TID 0000.0001) %MON dynstat_vvel_min             =  -1.7767711967215E-02
(PID.TID 0000.0001) %MON dynstat_vvel_mean            =  -2.7389034492965E-04
(PID.TID 0000.0001) %MON dynstat_vvel_sd              =   2.5251620713049E-03
(PID.TID 0000.0001) %MON dynstat_vvel_del2            =   1.2187535877898E-04
(PID.TID 0000.0001) %MON dynstat_wvel_max             =   2.1213174882548E-05
(PID.TID 0000.0001) %MON dynstat_wvel_min             =  -3.4233411454648E-05
(PID.TID 0000.0001) %MON dynstat_wvel_mean            =  -1.5381208717934E-23
(PID.TID 0000.0001) %MON dynstat_wvel_sd              =   9.9533296682663E-06
(PID.TID 0000.0001) %MON dynstat_wvel_del2            =   4.7897294016010E-07
(PID.TID 0000.0001) %MON dynstat_theta_max            =   1.3326607305056E+01
(PID.TID 0000.0001) %MON dynstat_theta_min            =   6.2538382432858E+00
(PID.TID 0000.0001) %MON dynstat_theta_mean           =   8.4641467201868E+00
(PID.TID 0000.0001) %MON dynstat_theta_sd             =   1.4058013539862E+00
(PID.TID 0000.0001) %MON dynstat_theta_del2           =   7.4069976530255E-03
(PID.TID 0000.0001) %MON dynstat_salt_max             =   1.1996635501859E+01
(PID.TID 0000.0001) %MON dynstat_salt_min             =   1.0463518251254E+01
(PID.TID 0000.0001) %MON dynstat_salt_mean            =   1.1308809431999E+01
(PID.TID 0000.0001) %MON dynstat_salt_sd              =   5.1718145963678E-01
(PID.TID 0000.0001) %MON dynstat_salt_del2            =   5.6474424210495E-04
(PID.TID 0000.0001) %MON advcfl_uvel_max              =   4.9307856644354E-03
(PID.TID 0000.0001) %MON advcfl_vvel_max              =   6.3963763081974E-04
(PID.TID 0000.0001) %MON advcfl_wvel_max              =   3.8608500582013E-03
(PID.TID 0000.0001) %MON advcfl_W_hf_max              =   4.0989064680348E-03
(PID.TID 0000.0001) %MON pe_b_mean                    =   5.3867681975209E-05
(PID.TID 0000.0001) %MON ke_max                       =   9.4721861460251E-03
(PID.TID 0000.0001) %MON ke_mean                      =   2.1627610115603E-04
(PID.TID 0000.0001) %MON ke_vol                       =   5.0981346415358E+14
(PID.TID 0000.0001) // =======================================================
(PID.TID 0000.0001) // End MONITOR dynamic field statistics
(PID.TID 0000.0001) // =======================================================
 Compute Stats, Diag. #     23  ETAN      vol(   0 ): 1.500E+12  Parms: SM      M1      
 Compute Stats, Diag. #     30  UVEL      vol(   0 ): 2.549E+15  Parms: UUR     MR      
 Compute Stats, Diag. #     31  VVEL      vol(   0 ): 2.449E+15  Parms: VVR     MR      
 Compute Stats, Diag. #     32  WVEL      vol(   0 ): 2.422E+15  Parms: WM      LR      
 Compute Stats, Diag. #     26  THETA     vol(   0 ): 2.549E+15  Parms: SMR     MR      
 Compute Stats, Diag. #     73  MXLDEPTH  vol(   0 ): 1.500E+12  Parms: SM      M1      
 Compute Stats, Diag. #    179  SubMesLf  vol(   0 ): 1.500E+12  Parms: SM P    M1      
 Compute Stats, Diag. #    181  SubMpsiY  vol(   0 ): 1.450E+12  Parms: VV      M1      
 Compute Stats, Diag. #    190  GM_PsiY   vol(   0 ): 2.330E+15  Parms: VV      LR      
 Compute Stats, Diag. #    187  GM_Kwy    vol(   0 ): 2.422E+15  Parms: VM      LR      
 Compute Stats, Diag. #    188  GM_Kwz    vol(   0 ): 2.422E+15  Parms: WM P    LR      
 Compute Stats, Diag. #    183  GM_Kvy    vol(   0 ): 2.449E+15  Parms: VV P    MR      
 Compute Stats, Diag. #    185  GM_Kvz    vol(   0 ): 2.449E+15  Parms: VV      MR      
 cg2d: Sum(rhs),rhsMax =  -1.14699916231586E-14  8.95636323684960E-01
(PID.TID 0000.0001)                    cg2d_init_res =    5.02646411398203E-02
(PID.TID 0000.0001)                       cg2d_iters =    28
(PID.TID 0000.0001)                         cg2d_res =    2.35282770885553E-16
(PID.TID 0000.0001) // =======================================================
(PID.TID 0000.0001) // Begin MONITOR dynamic field statistics
(PID.TID 0000.0001) // =======================================================
(PID.TID 0000.0001) %MON time_tsnumber                =                     6
(PID.TID 0000.0001) %MON time_secondsf                =   2.1600000000000E+04
(PID.TID 0000.0001) %MON dynstat_eta_max              =   3.4767466706768E-01
(PID.TID 0000.0001) %MON dynstat_eta_min              =  -8.0536711527532E-02
(PID.TID 0000.0001) %MON dynstat_eta_mean             =   9.1489156087240E-16
(PID.TID 0000.0001) %MON dynstat_eta_sd               =   1.2997163262118E-01
(PID.TID 0000.0001) %MON dynstat_eta_del2             =   5.7551685273348E-03
(PID.TID 0000.0001) %MON dynstat_uvel_max             =   1.3922269746144E-01
(PID.TID 0000.0001) %MON dynstat_uvel_min             =  -1.4149644378234E-01
(PID.TID 0000.0001) %MON dynstat_uvel_mean            =  -9.4406952953181E-05
(PID.TID 0000.0001) %MON dynstat_uvel_sd              =   2.1166710705285E-02
(PID.TID 0000.0001) %MON dynstat_uvel_del2            =   6.1215307173027E-04
(PID.TID 0000.0001) %MON dynstat_vvel_max             =   1.4764594268162E-02
(PID.TID 0000.0001) %MON dynstat_vvel_min             =  -1.5752590026070E-02
(PID.TID 0000.0001) %MON dynstat_vvel_mean            =   1.2703896668227E-05
(PID.TID 0000.0001) %MON dynstat_vvel_sd              =   2.0699523911734E-03
(PID.TID 0000.0001) %MON dynstat_vvel_del2            =   1.2155979536243E-04
(PID.TID 0000.0001) %MON dynstat_wvel_max             =   2.0358100333563E-05
(PID.TID 0000.0001) %MON dynstat_wvel_min             =  -3.1731684838113E-05
(PID.TID 0000.0001) %MON dynstat_wvel_mean            =   7.6906043589672E-24
(PID.TID 0000.0001) %MON dynstat_wvel_sd              =   9.0700840466724E-06
(PID.TID 0000.0001) %MON dynstat_wvel_del2            =   5.0191915684605E-07
(PID.TID 0000.0001) %MON dynstat_theta_max            =   1.3327009387411E+01
(PID.TID 0000.0001) %MON dynstat_theta_min            =   6.2538338195699E+00
(PID.TID 0000.0001) %MON dynstat_theta_mean           =   8.4641560711275E+00
(PID.TID 0000.0001) %MON dynstat_theta_sd             =   1.4058184448849E+00
(PID.TID 0000.0001) %MON dynstat_theta_del2           =   7.4044034940155E-03
(PID.TID 0000.0001) %MON dynstat_salt_max             =   1.1996654112028E+01
(PID.TID 0000.0001) %MON dynstat_salt_min             =   1.0463600520889E+01
(PID.TID 0000.0001) %MON dynstat_salt_mean            =   1.1308816345513E+01
(PID.TID 0000.0001) %MON dynstat_salt_sd              =   5.1717270340917E-01
(PID.TID 0000.0001) %MON dynstat_salt_del2            =   5.6484390385633E-04
(PID.TID 0000.0001) %MON advcfl_uvel_max              =   5.0938719761643E-03
(PID.TID 0000.0001) %MON advcfl_vvel_max              =   5.6709324093850E-04
(PID.TID 0000.0001) %MON advcfl_wvel_max              =   3.3729378808152E-03
(PID.TID 0000.0001) %MON advcfl_W_hf_max              =   3.6111564284609E-03
(PID.TID 0000.0001) %MON pe_b_mean                    =   4.8758025937849E-05
(PID.TID 0000.0001) %MON ke_max                       =   1.0079741934511E-02
(PID.TID 0000.0001) %MON ke_mean                      =   2.2607767287305E-04
(PID.TID 0000.0001) %MON ke_vol                       =   5.0981346415358E+14
(PID.TID 0000.0001) // =======================================================
(PID.TID 0000.0001) // End MONITOR dynamic field statistics
(PID.TID 0000.0001) // =======================================================
 cg2d: Sum(rhs),rhsMax =  -1.16347903533764E-14  8.95679390818465E-01
(PID.TID 0000.0001)                    cg2d_init_res =    8.21809645067344E-03
(PID.TID 0000.0001)                       cg2d_iters =    28
(PID.TID 0000.0001)                         cg2d_res =    1.73505784459396E-16
(PID.TID 0000.0001) // =======================================================
(PID.TID 0000.0001) // Begin MONITOR dynamic field statistics
(PID.TID 0000.0001) // =======================================================
(PID.TID 0000.0001) %MON time_tsnumber                =                     7
(PID.TID 0000.0001) %MON time_secondsf                =   2.5200000000000E+04
(PID.TID 0000.0001) %MON dynstat_eta_max              =   3.4738778049469E-01
(PID.TID 0000.0001) %MON dynstat_eta_min              =  -8.0832290776472E-02
(PID.TID 0000.0001) %MON dynstat_eta_mean             =   1.0538101196289E-15
(PID.TID 0000.0001) %MON dynstat_eta_sd               =   1.2984099266115E-01
(PID.TID 0000.0001) %MON dynstat_eta_del2             =   5.7561701063424E-03
(PID.TID 0000.0001) %MON dynstat_uvel_max             =   1.4248416621326E-01
(PID.TID 0000.0001) %MON dynstat_uvel_min             =  -1.4485229311958E-01
(PID.TID 0000.0001) %MON dynstat_uvel_mean            =  -3.0374084236172E-05
(PID.TID 0000.0001) %MON dynstat_uvel_sd              =   2.1551970118276E-02
(PID.TID 0000.0001) %MON dynstat_uvel_del2            =   6.3588722393939E-04
(PID.TID 0000.0001) %MON dynstat_vvel_max             =   1.2083432146169E-02
(PID.TID 0000.0001) %MON dynstat_vvel_min             =  -1.2156102856139E-02
(PID.TID 0000.0001) %MON dynstat_vvel_mean            =   2.2692749333195E-04
(PID.TID 0000.0001) %MON dynstat_vvel_sd              =   1.4758809358155E-03
(PID.TID 0000.0001) %MON dynstat_vvel_del2            =   1.1418785197306E-04
(PID.TID 0000.0001) %MON dynstat_wvel_max             =   2.1329046074855E-05
(PID.TID 0000.0001) %MON dynstat_wvel_min             =  -2.6768146752197E-05
(PID.TID 0000.0001) %MON dynstat_wvel_mean            =   9.2287252307606E-23
(PID.TID 0000.0001) %MON dynstat_wvel_sd              =   7.5779544773008E-06
(PID.TID 0000.0001) %MON dynstat_wvel_del2            =   5.0191720986180E-07
(PID.TID 0000.0001) %MON dynstat_theta_max            =   1.3327363721740E+01
(PID.TID 0000.0001) %MON dynstat_theta_min            =   6.2538334606613E+00
(PID.TID 0000.0001) %MON dynstat_theta_mean           =   8.4641582912782E+00
(PID.TID 0000.0001) %MON dynstat_theta_sd             =   1.4058222469179E+00
(PID.TID 0000.0001) %MON dynstat_theta_del2           =   7.4021853573028E-03
(PID.TID 0000.0001) %MON dynstat_salt_max             =   1.1996670756700E+01
(PID.TID 0000.0001) %MON dynstat_salt_min             =   1.0463558068929E+01
(PID.TID 0000.0001) %MON dynstat_salt_mean            =   1.1308818304120E+01
(PID.TID 0000.0001) %MON dynstat_salt_sd              =   5.1716430081714E-01
(PID.TID 0000.0001) %MON dynstat_salt_del2            =   5.6488906785179E-04
(PID.TID 0000.0001) %MON advcfl_uvel_max              =   5.2146825523050E-03
(PID.TID 0000.0001) %MON advcfl_vvel_max              =   4.3761970282099E-04
(PID.TID 0000.0001) %MON advcfl_wvel_max              =   2.6352240307891E-03
(PID.TID 0000.0001) %MON advcfl_W_hf_max              =   2.8545342194980E-03
(PID.TID 0000.0001) %MON pe_b_mean                    =   4.8660057709227E-05
(PID.TID 0000.0001) %MON ke_max                       =   1.0529680185665E-02
(PID.TID 0000.0001) %MON ke_mean                      =   2.3331529932917E-04
(PID.TID 0000.0001) %MON ke_vol                       =   5.0981346415358E+14
(PID.TID 0000.0001) // =======================================================
(PID.TID 0000.0001) // End MONITOR dynamic field statistics
(PID.TID 0000.0001) // =======================================================
 cg2d: Sum(rhs),rhsMax =  -1.28959343204116E-14  9.00117318030687E-01
(PID.TID 0000.0001)                    cg2d_init_res =    2.22110024797177E-02
(PID.TID 0000.0001)                       cg2d_iters =    28
(PID.TID 0000.0001)                         cg2d_res =    3.57870677356963E-16
(PID.TID 0000.0001) // =======================================================
(PID.TID 0000.0001) // Begin MONITOR dynamic field statistics
(PID.TID 0000.0001) // =======================================================
(PID.TID 0000.0001) %MON time_tsnumber                =                     8
(PID.TID 0000.0001) %MON time_secondsf                =   2.8800000000000E+04
(PID.TID 0000.0001) %MON dynstat_eta_max              =   3.5338735399848E-01
(PID.TID 0000.0001) %MON dynstat_eta_min              =  -8.1070930544399E-02
(PID.TID 0000.0001) %MON dynstat_eta_mean             =   9.5844268798828E-16
(PID.TID 0000.0001) %MON dynstat_eta_sd               =   1.3291875827340E-01
(PID.TID 0000.0001) %MON dynstat_eta_del2             =   5.7568012189172E-03
(PID.TID 0000.0001) %MON dynstat_uvel_max             =   1.4466892811641E-01
(PID.TID 0000.0001) %MON dynstat_uvel_min             =  -1.4680686265555E-01
(PID.TID 0000.0001) %MON dynstat_uvel_mean            =   9.3297337392608E-05
(PID.TID 0000.0001) %MON dynstat_uvel_sd              =   2.1763521703802E-02
(PID.TID 0000.0001) %MON dynstat_uvel_del2            =   6.5356046076639E-04
(PID.TID 0000.0001) %MON dynstat_vvel_max             =   8.3284938697371E-03
(PID.TID 0000.0001) %MON dynstat_vvel_min             =  -7.8208902260705E-03
(PID.TID 0000.0001) %MON dynstat_vvel_mean            =   2.8044906659445E-04
(PID.TID 0000.0001) %MON dynstat_vvel_sd              =   1.0390389356670E-03
(PID.TID 0000.0001) %MON dynstat_vvel_del2            =   1.0315456566996E-04
(PID.TID 0000.0001) %MON dynstat_wvel_max             =   1.9960195492216E-05
(PID.TID 0000.0001) %MON dynstat_wvel_min             =  -2.0962199998884E-05
(PID.TID 0000.0001) %MON dynstat_wvel_mean            =  -9.2287252307606E-23
(PID.TID 0000.0001) %MON dynstat_wvel_sd              =   5.9729837678482E-06
(PID.TID 0000.0001) %MON dynstat_wvel_del2            =   4.8524249823257E-07
(PID.TID 0000.0001) %MON dynstat_theta_max            =   1.3327681001671E+01
(PID.TID 0000.0001) %MON dynstat_theta_min            =   6.2538360841044E+00
(PID.TID 0000.0001) %MON dynstat_theta_mean           =   8.4641557150379E+00
(PID.TID 0000.0001) %MON dynstat_theta_sd             =   1.4058170678186E+00
(PID.TID 0000.0001) %MON dynstat_theta_del2           =   7.4004845431769E-03
(PID.TID 0000.0001) %MON dynstat_salt_max             =   1.1996685779480E+01
(PID.TID 0000.0001) %MON dynstat_salt_min             =   1.0463583935584E+01
(PID.TID 0000.0001) %MON dynstat_salt_mean            =   1.1308816651165E+01
(PID.TID 0000.0001) %MON dynstat_salt_sd              =   5.1715634743139E-01
(PID.TID 0000.0001) %MON dynstat_salt_del2            =   5.6488092846946E-04
(PID.TID 0000.0001) %MON advcfl_uvel_max              =   5.2850470555997E-03
(PID.TID 0000.0001) %MON advcfl_vvel_max              =   2.9982577931053E-04
(PID.TID 0000.0001) %MON advcfl_wvel_max              =   2.1119248475816E-03
(PID.TID 0000.0001) %MON advcfl_W_hf_max              =   2.2656140583823E-03
(PID.TID 0000.0001) %MON pe_b_mean                    =   5.0994286115998E-05
(PID.TID 0000.0001) %MON ke_max                       =   1.0791427275456E-02
(PID.TID 0000.0001) %MON ke_mean                      =   2.3738620128640E-04
(PID.TID 0000.0001) %MON ke_vol                       =   5.0981346415358E+14
(PID.TID 0000.0001) // =======================================================
(PID.TID 0000.0001) // End MONITOR dynamic field statistics
(PID.TID 0000.0001) // =======================================================
 cg2d: Sum(rhs),rhsMax =  -1.23685783837146E-14  9.04411076863041E-01
(PID.TID 0000.0001)                    cg2d_init_res =    2.00050105645383E-02
(PID.TID 0000.0001)                       cg2d_iters =    28
(PID.TID 0000.0001)                         cg2d_res =    4.02754491684857E-16
(PID.TID 0000.0001) // =======================================================
(PID.TID 0000.0001) // Begin MONITOR dynamic field statistics
(PID.TID 0000.0001) // =======================================================
(PID.TID 0000.0001) %MON time_tsnumber                =                     9
(PID.TID 0000.0001) %MON time_secondsf                =   3.2400000000000E+04
(PID.TID 0000.0001) %MON dynstat_eta_max              =   3.5911269233856E-01
(PID.TID 0000.0001) %MON dynstat_eta_min              =  -8.2880576701811E-02
(PID.TID 0000.0001) %MON dynstat_eta_mean             =   9.0599060058594E-16
(PID.TID 0000.0001) %MON dynstat_eta_sd               =   1.3581896115081E-01
(PID.TID 0000.0001) %MON dynstat_eta_del2             =   5.7583870839542E-03
(PID.TID 0000.0001) %MON dynstat_uvel_max             =   1.4560767468976E-01
(PID.TID 0000.0001) %MON dynstat_uvel_min             =  -1.4740564372378E-01
(PID.TID 0000.0001) %MON dynstat_uvel_mean            =   2.0217221421266E-04
(PID.TID 0000.0001) %MON dynstat_uvel_sd              =   2.1800530369463E-02
(PID.TID 0000.0001) %MON dynstat_uvel_del2            =   6.6346896318096E-04
(PID.TID 0000.0001) %MON dynstat_vvel_max             =   4.2468942688816E-03
(PID.TID 0000.0001) %MON dynstat_vvel_min             =  -3.4410941348956E-03
(PID.TID 0000.0001) %MON dynstat_vvel_mean            =   1.9986300288094E-04
(PID.TID 0000.0001) %MON dynstat_vvel_sd              =   7.2037564317644E-04
(PID.TID 0000.0001) %MON dynstat_vvel_del2            =   9.3026166229514E-05
(PID.TID 0000.0001) %MON dynstat_wvel_max             =   1.6512864817287E-05
(PID.TID 0000.0001) %MON dynstat_wvel_min             =  -1.4863610907533E-05
(PID.TID 0000.0001) %MON dynstat_wvel_mean            =  -1.5381208717934E-23
(PID.TID 0000.0001) %MON dynstat_wvel_sd              =   4.6774626307740E-06
(PID.TID 0000.0001) %MON dynstat_wvel_del2            =   4.5986945949363E-07
(PID.TID 0000.0001) %MON dynstat_theta_max            =   1.3327967503917E+01
(PID.TID 0000.0001) %MON dynstat_theta_min            =   6.2538389683772E+00
(PID.TID 0000.0001) %MON dynstat_theta_mean           =   8.4641521737040E+00
(PID.TID 0000.0001) %MON dynstat_theta_sd             =   1.4058100471163E+00
(PID.TID 0000.0001) %MON dynstat_theta_del2           =   7.3993941383438E-03
(PID.TID 0000.0001) %MON dynstat_salt_max             =   1.1996699281136E+01
(PID.TID 0000.0001) %MON dynstat_salt_min             =   1.0463691574947E+01
(PID.TID 0000.0001) %MON dynstat_salt_mean            =   1.1308814307018E+01
(PID.TID 0000.0001) %MON dynstat_salt_sd              =   5.1714847744750E-01
(PID.TID 0000.0001) %MON dynstat_salt_del2            =   5.6495438095113E-04
(PID.TID 0000.0001) %MON advcfl_uvel_max              =   5.3066031740562E-03
(PID.TID 0000.0001) %MON advcfl_vvel_max              =   1.5288819367974E-04
(PID.TID 0000.0001) %MON advcfl_wvel_max              =   1.8344233934902E-03
(PID.TID 0000.0001) %MON advcfl_W_hf_max              =   1.9566051403824E-03
(PID.TID 0000.0001) %MON pe_b_mean                    =   5.3243889578835E-05
(PID.TID 0000.0001) %MON ke_max                       =   1.0868590372351E-02
(PID.TID 0000.0001) %MON ke_mean                      =   2.3792048101614E-04
(PID.TID 0000.0001) %MON ke_vol                       =   5.0981346415358E+14
(PID.TID 0000.0001) // =======================================================
(PID.TID 0000.0001) // End MONITOR dynamic field statistics
(PID.TID 0000.0001) // =======================================================
 cg2d: Sum(rhs),rhsMax =  -1.18655085756814E-14  9.06306335174765E-01
(PID.TID 0000.0001)                    cg2d_init_res =    6.85652003885757E-03
(PID.TID 0000.0001)                       cg2d_iters =    28
(PID.TID 0000.0001)                         cg2d_res =    3.68030927105154E-16
(PID.TID 0000.0001) // =======================================================
(PID.TID 0000.0001) // Begin MONITOR dynamic field statistics
(PID.TID 0000.0001) // =======================================================
(PID.TID 0000.0001) %MON time_tsnumber                =                    10
(PID.TID 0000.0001) %MON time_secondsf                =   3.6000000000000E+04
(PID.TID 0000.0001) %MON dynstat_eta_max              =   3.6115994169919E-01
(PID.TID 0000.0001) %MON dynstat_eta_min              =  -8.3567794965098E-02
(PID.TID 0000.0001) %MON dynstat_eta_mean             =   8.9899698893229E-16
(PID.TID 0000.0001) %MON dynstat_eta_sd               =   1.3681140273153E-01
(PID.TID 0000.0001) %MON dynstat_eta_del2             =   5.7595838153525E-03
(PID.TID 0000.0001) %MON dynstat_uvel_max             =   1.4526783853869E-01
(PID.TID 0000.0001) %MON dynstat_uvel_min             =  -1.4679458386782E-01
(PID.TID 0000.0001) %MON dynstat_uvel_mean            =   2.5506521657968E-04
(PID.TID 0000.0001) %MON dynstat_uvel_sd              =   2.1675196284282E-02
(PID.TID 0000.0001) %MON dynstat_uvel_del2            =   6.6489198512321E-04
(PID.TID 0000.0001) %MON dynstat_vvel_max             =   5.9360683090105E-03
(PID.TID 0000.0001) %MON dynstat_vvel_min             =  -5.5072495350152E-03
(PID.TID 0000.0001) %MON dynstat_vvel_mean            =   6.1264188226258E-05
(PID.TID 0000.0001) %MON dynstat_vvel_sd              =   8.5765876858546E-04
(PID.TID 0000.0001) %MON dynstat_vvel_del2            =   8.8139042463455E-05
(PID.TID 0000.0001) %MON dynstat_wvel_max             =   1.3734826890066E-05
(PID.TID 0000.0001) %MON dynstat_wvel_min             =  -1.5434230157398E-05
(PID.TID 0000.0001) %MON dynstat_wvel_mean            =  -3.8453021794836E-24
(PID.TID 0000.0001) %MON dynstat_wvel_sd              =   4.6152582528045E-06
(PID.TID 0000.0001) %MON dynstat_wvel_del2            =   4.3347677917517E-07
(PID.TID 0000.0001) %MON dynstat_theta_max            =   1.3328234771630E+01
(PID.TID 0000.0001) %MON dynstat_theta_min            =   6.2538407283021E+00
(PID.TID 0000.0001) %MON dynstat_theta_mean           =   8.4641503052825E+00
(PID.TID 0000.0001) %MON dynstat_theta_sd             =   1.4058061605911E+00
(PID.TID 0000.0001) %MON dynstat_theta_del2           =   7.3989810185149E-03
(PID.TID 0000.0001) %MON dynstat_salt_max             =   1.1996711641758E+01
(PID.TID 0000.0001) %MON dynstat_salt_min             =   1.0463805499044E+01
(PID.TID 0000.0001) %MON dynstat_salt_mean            =   1.1308813099051E+01
(PID.TID 0000.0001) %MON dynstat_salt_sd              =   5.1714051140092E-01
(PID.TID 0000.0001) %MON dynstat_salt_del2            =   5.6504297979134E-04
(PID.TID 0000.0001) %MON advcfl_uvel_max              =   5.2846050192414E-03
(PID.TID 0000.0001) %MON advcfl_vvel_max              =   2.1369845912438E-04
(PID.TID 0000.0001) %MON advcfl_wvel_max              =   1.4674038939229E-03
(PID.TID 0000.0001) %MON advcfl_W_hf_max              =   1.6001073604431E-03
(PID.TID 0000.0001) %MON pe_b_mean                    =   5.4024848410267E-05
(PID.TID 0000.0001) %MON ke_max                       =   1.0779513271134E-02
(PID.TID 0000.0001) %MON ke_mean                      =   2.3529476194271E-04
(PID.TID 0000.0001) %MON ke_vol                       =   5.0981346415358E+14
(PID.TID 0000.0001) // =======================================================
(PID.TID 0000.0001) // End MONITOR dynamic field statistics
(PID.TID 0000.0001) // =======================================================
 Compute Stats, Diag. #     23  ETAN      vol(   0 ): 1.500E+12  Parms: SM      M1      
 Compute Stats, Diag. #     30  UVEL      vol(   0 ): 2.549E+15  Parms: UUR     MR      
 Compute Stats, Diag. #     31  VVEL      vol(   0 ): 2.449E+15  Parms: VVR     MR      
 Compute Stats, Diag. #     32  WVEL      vol(   0 ): 2.422E+15  Parms: WM      LR      
 Compute Stats, Diag. #     26  THETA     vol(   0 ): 2.549E+15  Parms: SMR     MR      
 Compute Stats, Diag. #     73  MXLDEPTH  vol(   0 ): 1.500E+12  Parms: SM      M1      
 Compute Stats, Diag. #    179  SubMesLf  vol(   0 ): 1.500E+12  Parms: SM P    M1      
 Compute Stats, Diag. #    181  SubMpsiY  vol(   0 ): 1.450E+12  Parms: VV      M1      
 Compute Stats, Diag. #    190  GM_PsiY   vol(   0 ): 2.330E+15  Parms: VV      LR      
 Compute Stats, Diag. #    187  GM_Kwy    vol(   0 ): 2.422E+15  Parms: VM      LR      
 Compute Stats, Diag. #    188  GM_Kwz    vol(   0 ): 2.422E+15  Parms: WM P    LR      
 Compute Stats, Diag. #    183  GM_Kvy    vol(   0 ): 2.449E+15  Parms: VV P    MR      
 Compute Stats, Diag. #    185  GM_Kvz    vol(   0 ): 2.449E+15  Parms: VV      MR      
 cg2d: Sum(rhs),rhsMax =  -1.18481613409216E-14  9.06280769045293E-01
(PID.TID 0000.0001)                    cg2d_init_res =    4.37320259931386E-03
(PID.TID 0000.0001)                       cg2d_iters =    28
(PID.TID 0000.0001)                         cg2d_res =    3.19941650924156E-16
(PID.TID 0000.0001) // =======================================================
(PID.TID 0000.0001) // Begin MONITOR dynamic field statistics
(PID.TID 0000.0001) // =======================================================
(PID.TID 0000.0001) %MON time_tsnumber                =                    11
(PID.TID 0000.0001) %MON time_secondsf                =   3.9600000000000E+04
(PID.TID 0000.0001) %MON dynstat_eta_max              =   3.6003430733429E-01
(PID.TID 0000.0001) %MON dynstat_eta_min              =  -8.3092573502634E-02
(PID.TID 0000.0001) %MON dynstat_eta_mean             =   1.0735193888346E-15
(PID.TID 0000.0001) %MON dynstat_eta_sd               =   1.3623427425621E-01
(PID.TID 0000.0001) %MON dynstat_eta_del2             =   5.7602138157291E-03
(PID.TID 0000.0001) %MON dynstat_uvel_max             =   1.4375352615806E-01
(PID.TID 0000.0001) %MON dynstat_uvel_min             =  -1.4512995871382E-01
(PID.TID 0000.0001) %MON dynstat_uvel_mean            =   2.4772713955355E-04
(PID.TID 0000.0001) %MON dynstat_uvel_sd              =   2.1408421429162E-02
(PID.TID 0000.0001) %MON dynstat_uvel_del2            =   6.5812386489952E-04
(PID.TID 0000.0001) %MON dynstat_vvel_max             =   8.7076143844888E-03
(PID.TID 0000.0001) %MON dynstat_vvel_min             =  -8.6455942796761E-03
(PID.TID 0000.0001) %MON dynstat_vvel_mean            =  -6.2944738270290E-05
(PID.TID 0000.0001) %MON dynstat_vvel_sd              =   1.2944164658180E-03
(PID.TID 0000.0001) %MON dynstat_vvel_del2            =   8.9706225339635E-05
(PID.TID 0000.0001) %MON dynstat_wvel_max             =   1.4166405815565E-05
(PID.TID 0000.0001) %MON dynstat_wvel_min             =  -2.4426428521094E-05
(PID.TID 0000.0001) %MON dynstat_wvel_mean            =   1.1535906538451E-23
(PID.TID 0000.0001) %MON dynstat_wvel_sd              =   5.7347613541933E-06
(PID.TID 0000.0001) %MON dynstat_wvel_del2            =   4.1096169442931E-07
(PID.TID 0000.0001) %MON dynstat_theta_max            =   1.3328568103363E+01
(PID.TID 0000.0001) %MON dynstat_theta_min            =   6.2538413495985E+00
(PID.TID 0000.0001) %MON dynstat_theta_mean           =   8.4641504296389E+00
(PID.TID 0000.0001) %MON dynstat_theta_sd             =   1.4058060082526E+00
(PID.TID 0000.0001) %MON dynstat_theta_del2           =   7.3991861999159E-03
(PID.TID 0000.0001) %MON dynstat_salt_max             =   1.1996726310514E+01
(PID.TID 0000.0001) %MON dynstat_salt_min             =   1.0463889463357E+01
(PID.TID 0000.0001) %MON dynstat_salt_mean            =   1.1308813190542E+01
(PID.TID 0000.0001) %MON dynstat_salt_sd              =   5.1713245086705E-01
(PID.TID 0000.0001) %MON dynstat_salt_del2            =   5.6511989927516E-04
(PID.TID 0000.0001) %MON advcfl_uvel_max              =   5.2246785136974E-03
(PID.TID 0000.0001) %MON advcfl_vvel_max              =   3.1347411784160E-04
(PID.TID 0000.0001) %MON advcfl_wvel_max              =   2.4230879281951E-03
(PID.TID 0000.0001) %MON advcfl_W_hf_max              =   2.6238572308176E-03
(PID.TID 0000.0001) %MON pe_b_mean                    =   5.3570010376793E-05
(PID.TID 0000.0001) %MON ke_max                       =   1.0545934995279E-02
(PID.TID 0000.0001) %MON ke_mean                      =   2.2999773780070E-04
(PID.TID 0000.0001) %MON ke_vol                       =   5.0981346415358E+14
(PID.TID 0000.0001) // =======================================================
(PID.TID 0000.0001) // End MONITOR dynamic field statistics
(PID.TID 0000.0001) // =======================================================
 cg2d: Sum(rhs),rhsMax =  -1.43288159115684E-14  9.05893517988412E-01
(PID.TID 0000.0001)                    cg2d_init_res =    7.06579687892850E-03
(PID.TID 0000.0001)                       cg2d_iters =    28
(PID.TID 0000.0001)                         cg2d_res =    2.61065349897213E-16
(PID.TID 0000.0001) // =======================================================
(PID.TID 0000.0001) // Begin MONITOR dynamic field statistics
(PID.TID 0000.0001) // =======================================================
(PID.TID 0000.0001) %MON time_tsnumber                =                    12
(PID.TID 0000.0001) %MON time_secondsf                =   4.3200000000000E+04
(PID.TID 0000.0001) %MON dynstat_eta_max              =   3.5812941177585E-01
(PID.TID 0000.0001) %MON dynstat_eta_min              =  -8.2032368368517E-02
(PID.TID 0000.0001) %MON dynstat_eta_mean             =   1.0445912679036E-15
(PID.TID 0000.0001) %MON dynstat_eta_sd               =   1.3528443355403E-01
(PID.TID 0000.0001) %MON dynstat_eta_del2             =   5.7611272909407E-03
(PID.TID 0000.0001) %MON dynstat_uvel_max             =   1.4130521429113E-01
(PID.TID 0000.0001) %MON dynstat_uvel_min             =  -1.4260677045879E-01
(PID.TID 0000.0001) %MON dynstat_uvel_mean            =   2.0039343455962E-04
(PID.TID 0000.0001) %MON dynstat_uvel_sd              =   2.1034815432484E-02
(PID.TID 0000.0001) %MON dynstat_uvel_del2            =   6.4439980258222E-04
(PID.TID 0000.0001) %MON dynstat_vvel_max             =   1.0736320469306E-02
(PID.TID 0000.0001) %MON dynstat_vvel_min             =  -1.0862556259936E-02
(PID.TID 0000.0001) %MON dynstat_vvel_mean            =  -1.3125822182169E-04
(PID.TID 0000.0001) %MON dynstat_vvel_sd              =   1.6604322833334E-03
(PID.TID 0000.0001) %MON dynstat_vvel_del2            =   9.4728469136346E-05
(PID.TID 0000.0001) %MON dynstat_wvel_max             =   2.0462534887199E-05
(PID.TID 0000.0001) %MON dynstat_wvel_min             =  -3.0408868506052E-05
(PID.TID 0000.0001) %MON dynstat_wvel_mean            =   9.9977856666574E-23
(PID.TID 0000.0001) %MON dynstat_wvel_sd              =   7.0067298209450E-06
(PID.TID 0000.0001) %MON dynstat_wvel_del2            =   3.9279672741741E-07
(PID.TID 0000.0001) %MON dynstat_theta_max            =   1.3328931167154E+01
(PID.TID 0000.0001) %MON dynstat_theta_min            =   6.2538414086021E+00
(PID.TID 0000.0001) %MON dynstat_theta_mean           =   8.4641514414194E+00
(PID.TID 0000.0001) %MON dynstat_theta_sd             =   1.4058074940610E+00
(PID.TID 0000.0001) %MON dynstat_theta_del2           =   7.3999346485338E-03
(PID.TID 0000.0001) %MON dynstat_salt_max             =   1.1996741732440E+01
(PID.TID 0000.0001) %MON dynstat_salt_min             =   1.0463953192418E+01
(PID.TID 0000.0001) %MON dynstat_salt_mean            =   1.1308813843710E+01
(PID.TID 0000.0001) %MON dynstat_salt_sd              =   5.1712435512819E-01
(PID.TID 0000.0001) %MON dynstat_salt_del2            =   5.6519893156512E-04
(PID.TID 0000.0001) %MON advcfl_uvel_max              =   5.1338437365163E-03
(PID.TID 0000.0001) %MON advcfl_vvel_max              =   3.9105202535770E-04
(PID.TID 0000.0001) %MON advcfl_wvel_max              =   3.0352889601307E-03
(PID.TID 0000.0001) %MON advcfl_W_hf_max              =   3.2841681501227E-03
(PID.TID 0000.0001) %MON pe_b_mean                    =   5.2825622143673E-05
(PID.TID 0000.0001) %MON ke_max                       =   1.0195579541674E-02
(PID.TID 0000.0001) %MON ke_mean                      =   2.2258453085627E-04
(PID.TID 0000.0001) %MON ke_vol                       =   5.0981346415358E+14
(PID.TID 0000.0001) // =======================================================
(PID.TID 0000.0001) // End MONITOR dynamic field statistics
(PID.TID 0000.0001) // =======================================================
 cg2d: Sum(rhs),rhsMax =  -1.33990041284449E-14  9.06218243112124E-01
(PID.TID 0000.0001)                    cg2d_init_res =    4.75365876429725E-03
(PID.TID 0000.0001)                       cg2d_iters =    28
(PID.TID 0000.0001)                         cg2d_res =    2.13772245233738E-16
(PID.TID 0000.0001) // =======================================================
(PID.TID 0000.0001) // Begin MONITOR dynamic field statistics
(PID.TID 0000.0001) // =======================================================
(PID.TID 0000.0001) %MON time_tsnumber                =                    13
(PID.TID 0000.0001) %MON time_secondsf                =   4.6800000000000E+04
(PID.TID 0000.0001) %MON dynstat_eta_max              =   3.5726903601572E-01
(PID.TID 0000.0001) %MON dynstat_eta_min              =  -8.1003161625922E-02
(PID.TID 0000.0001) %MON dynstat_eta_mean             =   1.0029474894206E-15
(PID.TID 0000.0001) %MON dynstat_eta_sd               =   1.3478461863749E-01
(PID.TID 0000.0001) %MON dynstat_eta_del2             =   5.7628867024857E-03
(PID.TID 0000.0001) %MON dynstat_uvel_max             =   1.3828126406654E-01
(PID.TID 0000.0001) %MON dynstat_uvel_min             =  -1.3951249541228E-01
(PID.TID 0000.0001) %MON dynstat_uvel_mean            =   1.4123389652104E-04
(PID.TID 0000.0001) %MON dynstat_uvel_sd              =   2.0602839083497E-02
(PID.TID 0000.0001) %MON dynstat_uvel_del2            =   6.2570203324676E-04
(PID.TID 0000.0001) %MON dynstat_vvel_max             =   1.1762416814252E-02
(PID.TID 0000.0001) %MON dynstat_vvel_min             =  -1.1891299385913E-02
(PID.TID 0000.0001) %MON dynstat_vvel_mean            =  -1.3669517853928E-04
(PID.TID 0000.0001) %MON dynstat_vvel_sd              =   1.8486370732169E-03
(PID.TID 0000.0001) %MON dynstat_vvel_del2            =   9.8780514623570E-05
(PID.TID 0000.0001) %MON dynstat_wvel_max             =   2.5324179287140E-05
(PID.TID 0000.0001) %MON dynstat_wvel_min             =  -3.2802813539812E-05
(PID.TID 0000.0001) %MON dynstat_wvel_mean            =   1.4612148282038E-22
(PID.TID 0000.0001) %MON dynstat_wvel_sd              =   7.8193692711507E-06
(PID.TID 0000.0001) %MON dynstat_wvel_del2            =   3.7576948383020E-07
(PID.TID 0000.0001) %MON dynstat_theta_max            =   1.3329390432323E+01
(PID.TID 0000.0001) %MON dynstat_theta_min            =   6.2538414441916E+00
(PID.TID 0000.0001) %MON dynstat_theta_mean           =   8.4641522242962E+00
(PID.TID 0000.0001) %MON dynstat_theta_sd             =   1.4058084977589E+00
(PID.TID 0000.0001) %MON dynstat_theta_del2           =   7.4010740709126E-03
(PID.TID 0000.0001) %MON dynstat_salt_max             =   1.1996760607472E+01
(PID.TID 0000.0001) %MON dynstat_salt_min             =   1.0463928686432E+01
(PID.TID 0000.0001) %MON dynstat_salt_mean            =   1.1308814346665E+01
(PID.TID 0000.0001) %MON dynstat_salt_sd              =   5.1711626815538E-01
(PID.TID 0000.0001) %MON dynstat_salt_del2            =   5.6528775757902E-04
(PID.TID 0000.0001) %MON advcfl_uvel_max              =   5.0224498348420E-03
(PID.TID 0000.0001) %MON advcfl_vvel_max              =   4.2808677789287E-04
(PID.TID 0000.0001) %MON advcfl_wvel_max              =   3.2661211207515E-03
(PID.TID 0000.0001) %MON advcfl_W_hf_max              =   3.5369272010141E-03
(PID.TID 0000.0001) %MON pe_b_mean                    =   5.2436009538818E-05
(PID.TID 0000.0001) %MON ke_max                       =   9.7683532173321E-03
(PID.TID 0000.0001) %MON ke_mean                      =   2.1389914377295E-04
(PID.TID 0000.0001) %MON ke_vol                       =   5.0981346415358E+14
(PID.TID 0000.0001) // =======================================================
(PID.TID 0000.0001) // End MONITOR dynamic field statistics
(PID.TID 0000.0001) // =======================================================
 cg2d: Sum(rhs),rhsMax =  -1.27051147380541E-14  9.07311785131337E-01
(PID.TID 0000.0001)                    cg2d_init_res =    2.57538973475615E-03
(PID.TID 0000.0001)                       cg2d_iters =    27
(PID.TID 0000.0001)                         cg2d_res =    6.42083878130629E-14
(PID.TID 0000.0001) // =======================================================
(PID.TID 0000.0001) // Begin MONITOR dynamic field statistics
(PID.TID 0000.0001) // =======================================================
(PID.TID 0000.0001) %MON time_tsnumber                =                    14
(PID.TID 0000.0001) %MON time_secondsf                =   5.0400000000000E+04
(PID.TID 0000.0001) %MON dynstat_eta_max              =   3.5753391555380E-01
(PID.TID 0000.0001) %MON dynstat_eta_min              =  -8.0356042625833E-02
(PID.TID 0000.0001) %MON dynstat_eta_mean             =   1.0248819986979E-15
(PID.TID 0000.0001) %MON dynstat_eta_sd               =   1.3484461271413E-01
(PID.TID 0000.0001) %MON dynstat_eta_del2             =   5.7652853264045E-03
(PID.TID 0000.0001) %MON dynstat_uvel_max             =   1.3511064386069E-01
(PID.TID 0000.0001) %MON dynstat_uvel_min             =  -1.3623068683192E-01
(PID.TID 0000.0001) %MON dynstat_uvel_mean            =   9.3525456118939E-05
(PID.TID 0000.0001) %MON dynstat_uvel_sd              =   2.0170109018204E-02
(PID.TID 0000.0001) %MON dynstat_uvel_del2            =   6.0448162400561E-04
(PID.TID 0000.0001) %MON dynstat_vvel_max             =   1.1603788939415E-02
(PID.TID 0000.0001) %MON dynstat_vvel_min             =  -1.1632060667461E-02
(PID.TID 0000.0001) %MON dynstat_vvel_mean            =  -9.6022079158455E-05
(PID.TID 0000.0001) %MON dynstat_vvel_sd              =   1.8357939196839E-03
(PID.TID 0000.0001) %MON dynstat_vvel_del2            =   9.8678961382522E-05
(PID.TID 0000.0001) %MON dynstat_wvel_max             =   2.7496348009534E-05
(PID.TID 0000.0001) %MON dynstat_wvel_min             =  -3.1544798508508E-05
(PID.TID 0000.0001) %MON dynstat_wvel_mean            =  -1.5381208717934E-23
(PID.TID 0000.0001) %MON dynstat_wvel_sd              =   7.9465406530024E-06
(PID.TID 0000.0001) %MON dynstat_wvel_del2            =   3.5584612497260E-07
(PID.TID 0000.0001) %MON dynstat_theta_max            =   1.3329985489640E+01
(PID.TID 0000.0001) %MON dynstat_theta_min            =   6.2538416933003E+00
(PID.TID 0000.0001) %MON dynstat_theta_mean           =   8.4641523744099E+00
(PID.TID 0000.0001) %MON dynstat_theta_sd             =   1.4058082502488E+00
(PID.TID 0000.0001) %MON dynstat_theta_del2           =   7.4024100587385E-03
(PID.TID 0000.0001) %MON dynstat_salt_max             =   1.1996784518497E+01
(PID.TID 0000.0001) %MON dynstat_salt_min             =   1.0463954616447E+01
(PID.TID 0000.0001) %MON dynstat_salt_mean            =   1.1308814447242E+01
(PID.TID 0000.0001) %MON dynstat_salt_sd              =   5.1710820306825E-01
(PID.TID 0000.0001) %MON dynstat_salt_del2            =   5.6538051894715E-04
(PID.TID 0000.0001) %MON advcfl_uvel_max              =   4.9043047259493E-03
(PID.TID 0000.0001) %MON advcfl_vvel_max              =   4.1875418402861E-04
(PID.TID 0000.0001) %MON advcfl_wvel_max              =   3.1430290176761E-03
(PID.TID 0000.0001) %MON advcfl_W_hf_max              =   3.4062458505870E-03
(PID.TID 0000.0001) %MON pe_b_mean                    =   5.2482699585985E-05
(PID.TID 0000.0001) %MON ke_max                       =   9.3166663852498E-03
(PID.TID 0000.0001) %MON ke_mean                      =   2.0504442469537E-04
(PID.TID 0000.0001) %MON ke_vol                       =   5.0981346415358E+14
(PID.TID 0000.0001) // =======================================================
(PID.TID 0000.0001) // End MONITOR dynamic field statistics
(PID.TID 0000.0001) // =======================================================
 cg2d: Sum(rhs),rhsMax =  -1.22991894446756E-14  9.08645630654154E-01
(PID.TID 0000.0001)                    cg2d_init_res =    2.58632171928478E-03
(PID.TID 0000.0001)                       cg2d_iters =    27
(PID.TID 0000.0001)                         cg2d_res =    2.45313257505169E-14
(PID.TID 0000.0001) // =======================================================
(PID.TID 0000.0001) // Begin MONITOR dynamic field statistics
(PID.TID 0000.0001) // =======================================================
(PID.TID 0000.0001) %MON time_tsnumber                =                    15
(PID.TID 0000.0001) %MON time_secondsf                =   5.4000000000000E+04
(PID.TID 0000.0001) %MON dynstat_eta_max              =   3.5823815058350E-01
(PID.TID 0000.0001) %MON dynstat_eta_min              =  -8.0171383469882E-02
(PID.TID 0000.0001) %MON dynstat_eta_mean             =   1.1215209960938E-15
(PID.TID 0000.0001) %MON dynstat_eta_sd               =   1.3515953444310E-01
(PID.TID 0000.0001) %MON dynstat_eta_del2             =   5.7677038385343E-03
(PID.TID 0000.0001) %MON dynstat_uvel_max             =   1.3222579788338E-01
(PID.TID 0000.0001) %MON dynstat_uvel_min             =  -1.3318789475332E-01
(PID.TID 0000.0001) %MON dynstat_uvel_mean            =   6.9663190875250E-05
(PID.TID 0000.0001) %MON dynstat_uvel_sd              =   1.9794174692699E-02
(PID.TID 0000.0001) %MON dynstat_uvel_del2            =   5.8333120761178E-04
(PID.TID 0000.0001) %MON dynstat_vvel_max             =   1.0225440007757E-02
(PID.TID 0000.0001) %MON dynstat_vvel_min             =  -1.0143506971401E-02
(PID.TID 0000.0001) %MON dynstat_vvel_mean            =  -3.5277350720949E-05
(PID.TID 0000.0001) %MON dynstat_vvel_sd              =   1.6315595000880E-03
(PID.TID 0000.0001) %MON dynstat_vvel_del2            =   9.3233555570304E-05
(PID.TID 0000.0001) %MON dynstat_wvel_max             =   2.6808267521390E-05
(PID.TID 0000.0001) %MON dynstat_wvel_min             =  -2.6897201085114E-05
(PID.TID 0000.0001) %MON dynstat_wvel_mean            =  -1.4804413391012E-22
(PID.TID 0000.0001) %MON dynstat_wvel_sd              =   7.3645208470231E-06
(PID.TID 0000.0001) %MON dynstat_wvel_del2            =   3.3130688632259E-07
(PID.TID 0000.0001) %MON dynstat_theta_max            =   1.3330741297057E+01
(PID.TID 0000.0001) %MON dynstat_theta_min            =   6.2538421279905E+00
(PID.TID 0000.0001) %MON dynstat_theta_mean           =   8.4641520994080E+00
(PID.TID 0000.0001) %MON dynstat_theta_sd             =   1.4058071454591E+00
(PID.TID 0000.0001) %MON dynstat_theta_del2           =   7.4037329946252E-03
(PID.TID 0000.0001) %MON dynstat_salt_max             =   1.1996814467362E+01
(PID.TID 0000.0001) %MON dynstat_salt_min             =   1.0464003938632E+01
(PID.TID 0000.0001) %MON dynstat_salt_mean            =   1.1308814277922E+01
(PID.TID 0000.0001) %MON dynstat_salt_sd              =   5.1710015205607E-01
(PID.TID 0000.0001) %MON dynstat_salt_del2            =   5.6547082584208E-04
(PID.TID 0000.0001) %MON advcfl_uvel_max              =   4.7947642111194E-03
(PID.TID 0000.0001) %MON advcfl_vvel_max              =   3.6811584027926E-04
(PID.TID 0000.0001) %MON advcfl_wvel_max              =   2.7093115578675E-03
(PID.TID 0000.0001) %MON advcfl_W_hf_max              =   2.9358623885686E-03
(PID.TID 0000.0001) %MON pe_b_mean                    =   5.2728126410007E-05
(PID.TID 0000.0001) %MON ke_max                       =   8.8985244784520E-03
(PID.TID 0000.0001) %MON ke_mean                      =   1.9718648535000E-04
(PID.TID 0000.0001) %MON ke_vol                       =   5.0981346415358E+14
(PID.TID 0000.0001) // =======================================================
(PID.TID 0000.0001) // End MONITOR dynamic field statistics
(PID.TID 0000.0001) // =======================================================
 Compute Stats, Diag. #     23  ETAN      vol(   0 ): 1.500E+12  Parms: SM      M1      
 Compute Stats, Diag. #     30  UVEL      vol(   0 ): 2.549E+15  Parms: UUR     MR      
 Compute Stats, Diag. #     31  VVEL      vol(   0 ): 2.449E+15  Parms: VVR     MR      
 Compute Stats, Diag. #     32  WVEL      vol(   0 ): 2.422E+15  Parms: WM      LR      
 Compute Stats, Diag. #     26  THETA     vol(   0 ): 2.549E+15  Parms: SMR     MR      
 Compute Stats, Diag. #     73  MXLDEPTH  vol(   0 ): 1.500E+12  Parms: SM      M1      
 Compute Stats, Diag. #    179  SubMesLf  vol(   0 ): 1.500E+12  Parms: SM P    M1      
 Compute Stats, Diag. #    181  SubMpsiY  vol(   0 ): 1.450E+12  Parms: VV      M1      
 Compute Stats, Diag. #    190  GM_PsiY   vol(   0 ): 2.330E+15  Parms: VV      LR      
 Compute Stats, Diag. #    187  GM_Kwy    vol(   0 ): 2.422E+15  Parms: VM      LR      
 Compute Stats, Diag. #    188  GM_Kwz    vol(   0 ): 2.422E+15  Parms: WM P    LR      
 Compute Stats, Diag. #    183  GM_Kvy    vol(   0 ): 2.449E+15  Parms: VV P    MR      
 Compute Stats, Diag. #    185  GM_Kvz    vol(   0 ): 2.449E+15  Parms: VV      MR      
 cg2d: Sum(rhs),rhsMax =  -1.46549439250521E-14  9.09680437176610E-01
(PID.TID 0000.0001)                    cg2d_init_res =    2.11599010649125E-03
(PID.TID 0000.0001)                       cg2d_iters =    27
(PID.TID 0000.0001)                         cg2d_res =    1.45455962857493E-14
(PID.TID 0000.0001) // =======================================================
(PID.TID 0000.0001) // Begin MONITOR dynamic field statistics
(PID.TID 0000.0001) // =======================================================
(PID.TID 0000.0001) %MON time_tsnumber                =                    16
(PID.TID 0000.0001) %MON time_secondsf                =   5.7600000000000E+04
(PID.TID 0000.0001) %MON dynstat_eta_max              =   3.5876568680041E-01
(PID.TID 0000.0001) %MON dynstat_eta_min              =  -8.0363051557782E-02
(PID.TID 0000.0001) %MON dynstat_eta_mean             =   1.1091232299805E-15
(PID.TID 0000.0001) %MON dynstat_eta_sd               =   1.3541218597442E-01
(PID.TID 0000.0001) %MON dynstat_eta_del2             =   5.7695712097233E-03
(PID.TID 0000.0001) %MON dynstat_uvel_max             =   1.2999558579210E-01
(PID.TID 0000.0001) %MON dynstat_uvel_min             =  -1.3077779346352E-01
(PID.TID 0000.0001) %MON dynstat_uvel_mean            =   7.1018983490085E-05
(PID.TID 0000.0001) %MON dynstat_uvel_sd              =   1.9521924359632E-02
(PID.TID 0000.0001) %MON dynstat_uvel_del2            =   5.6466279058256E-04
(PID.TID 0000.0001) %MON dynstat_vvel_max             =   7.7573508581352E-03
(PID.TID 0000.0001) %MON dynstat_vvel_min             =  -7.6211320258345E-03
(PID.TID 0000.0001) %MON dynstat_vvel_mean            =   2.1410730412360E-05
(PID.TID 0000.0001) %MON dynstat_vvel_sd              =   1.2818443190414E-03
(PID.TID 0000.0001) %MON dynstat_vvel_del2            =   8.3272262939577E-05
(PID.TID 0000.0001) %MON dynstat_wvel_max             =   2.3495715077025E-05
(PID.TID 0000.0001) %MON dynstat_wvel_min             =  -1.9383150428876E-05
(PID.TID 0000.0001) %MON dynstat_wvel_mean            =  -1.9611041115366E-22
(PID.TID 0000.0001) %MON dynstat_wvel_sd              =   6.2147155967493E-06
(PID.TID 0000.0001) %MON dynstat_wvel_del2            =   3.0488542097283E-07
(PID.TID 0000.0001) %MON dynstat_theta_max            =   1.3331661284237E+01
(PID.TID 0000.0001) %MON dynstat_theta_min            =   6.2538426231730E+00
(PID.TID 0000.0001) %MON dynstat_theta_mean           =   8.4641517777304E+00
(PID.TID 0000.0001) %MON dynstat_theta_sd             =   1.4058059035022E+00
(PID.TID 0000.0001) %MON dynstat_theta_del2           =   7.4048406812364E-03
(PID.TID 0000.0001) %MON dynstat_salt_max             =   1.1996850618180E+01
(PID.TID 0000.0001) %MON dynstat_salt_min             =   1.0464079260834E+01
(PID.TID 0000.0001) %MON dynstat_salt_mean            =   1.1308814077495E+01
(PID.TID 0000.0001) %MON dynstat_salt_sd              =   5.1709210159139E-01
(PID.TID 0000.0001) %MON dynstat_salt_del2            =   5.6556660824382E-04
(PID.TID 0000.0001) %MON advcfl_uvel_max              =   4.7080005646868E-03
(PID.TID 0000.0001) %MON advcfl_vvel_max              =   2.7926463089287E-04
(PID.TID 0000.0001) %MON advcfl_wvel_max              =   2.3031396728734E-03
(PID.TID 0000.0001) %MON advcfl_W_hf_max              =   2.4950105652689E-03
(PID.TID 0000.0001) %MON pe_b_mean                    =   5.2925438321267E-05
(PID.TID 0000.0001) %MON ke_max                       =   8.5674146710583E-03
(PID.TID 0000.0001) %MON ke_mean                      =   1.9134484415789E-04
(PID.TID 0000.0001) %MON ke_vol                       =   5.0981346415358E+14
(PID.TID 0000.0001) // =======================================================
(PID.TID 0000.0001) // End MONITOR dynamic field statistics
(PID.TID 0000.0001) // =======================================================
 cg2d: Sum(rhs),rhsMax =  -1.36071709455621E-14  9.10174725600591E-01
(PID.TID 0000.0001)                    cg2d_init_res =    1.55964402088704E-03
(PID.TID 0000.0001)                       cg2d_iters =    27
(PID.TID 0000.0001)                         cg2d_res =    2.63993711792254E-14
(PID.TID 0000.0001) // =======================================================
(PID.TID 0000.0001) // Begin MONITOR dynamic field statistics
(PID.TID 0000.0001) // =======================================================
(PID.TID 0000.0001) %MON time_tsnumber                =                    17
(PID.TID 0000.0001) %MON time_secondsf                =   6.1200000000000E+04
(PID.TID 0000.0001) %MON dynstat_eta_max              =   3.5888690017246E-01
(PID.TID 0000.0001) %MON dynstat_eta_min              =  -8.0772566138606E-02
(PID.TID 0000.0001) %MON dynstat_eta_mean             =   8.5798899332682E-16
(PID.TID 0000.0001) %MON dynstat_eta_sd               =   1.3547968536892E-01
(PID.TID 0000.0001) %MON dynstat_eta_del2             =   5.7706003109854E-03
(PID.TID 0000.0001) %MON dynstat_uvel_max             =   1.2867542747082E-01
(PID.TID 0000.0001) %MON dynstat_uvel_min             =  -1.2929570434539E-01
(PID.TID 0000.0001) %MON dynstat_uvel_mean            =   9.0999070431980E-05
(PID.TID 0000.0001) %MON dynstat_uvel_sd              =   1.9382517876925E-02
(PID.TID 0000.0001) %MON dynstat_uvel_del2            =   5.5044143392017E-04
(PID.TID 0000.0001) %MON dynstat_vvel_max             =   5.2946508824677E-03
(PID.TID 0000.0001) %MON dynstat_vvel_min             =  -5.5914419125725E-03
(PID.TID 0000.0001) %MON dynstat_vvel_mean            =   5.7858051179661E-05
(PID.TID 0000.0001) %MON dynstat_vvel_sd              =   8.8934085672324E-04
(PID.TID 0000.0001) %MON dynstat_vvel_del2            =   7.1763128357166E-05
(PID.TID 0000.0001) %MON dynstat_wvel_max             =   1.8114223284048E-05
(PID.TID 0000.0001) %MON dynstat_wvel_min             =  -1.2397442826941E-05
(PID.TID 0000.0001) %MON dynstat_wvel_mean            =  -1.4612148282038E-22
(PID.TID 0000.0001) %MON dynstat_wvel_sd              =   4.8404506934785E-06
(PID.TID 0000.0001) %MON dynstat_wvel_del2            =   2.8427370943144E-07
(PID.TID 0000.0001) %MON dynstat_theta_max            =   1.3332730558943E+01
(PID.TID 0000.0001) %MON dynstat_theta_min            =   6.2538430916999E+00
(PID.TID 0000.0001) %MON dynstat_theta_mean           =   8.4641516326033E+00
(PID.TID 0000.0001) %MON dynstat_theta_sd             =   1.4058049411100E+00
(PID.TID 0000.0001) %MON dynstat_theta_del2           =   7.4055280862301E-03
(PID.TID 0000.0001) %MON dynstat_salt_max             =   1.1996892423174E+01
(PID.TID 0000.0001) %MON dynstat_salt_min             =   1.0464129714449E+01
(PID.TID 0000.0001) %MON dynstat_salt_mean            =   1.1308813986585E+01
(PID.TID 0000.0001) %MON dynstat_salt_sd              =   5.1708404377777E-01
(PID.TID 0000.0001) %MON dynstat_salt_del2            =   5.6566530288227E-04
(PID.TID 0000.0001) %MON advcfl_uvel_max              =   4.6546453564341E-03
(PID.TID 0000.0001) %MON advcfl_vvel_max              =   2.0129190885261E-04
(PID.TID 0000.0001) %MON advcfl_wvel_max              =   1.8145085964044E-03
(PID.TID 0000.0001) %MON advcfl_W_hf_max              =   1.9640761251568E-03
(PID.TID 0000.0001) %MON pe_b_mean                    =   5.2978215335337E-05
(PID.TID 0000.0001) %MON ke_max                       =   8.3634268340002E-03
(PID.TID 0000.0001) %MON ke_mean                      =   1.8822669973066E-04
(PID.TID 0000.0001) %MON ke_vol                       =   5.0981346415358E+14
(PID.TID 0000.0001) // =======================================================
(PID.TID 0000.0001) // End MONITOR dynamic field statistics
(PID.TID 0000.0001) // =======================================================
 cg2d: Sum(rhs),rhsMax =  -1.12826414877532E-14  9.10167845575485E-01
(PID.TID 0000.0001)                    cg2d_init_res =    1.53511609065005E-03
(PID.TID 0000.0001)                       cg2d_iters =    27
(PID.TID 0000.0001)                         cg2d_res =    5.58222225717609E-14
(PID.TID 0000.0001) // =======================================================
(PID.TID 0000.0001) // Begin MONITOR dynamic field statistics
(PID.TID 0000.0001) // =======================================================
(PID.TID 0000.0001) %MON time_tsnumber                =                    18
(PID.TID 0000.0001) %MON time_secondsf                =   6.4800000000000E+04
(PID.TID 0000.0001) %MON dynstat_eta_max              =   3.5871857266337E-01
(PID.TID 0000.0001) %MON dynstat_eta_min              =  -8.1229256550513E-02
(PID.TID 0000.0001) %MON dynstat_eta_mean             =   1.1599858601888E-15
(PID.TID 0000.0001) %MON dynstat_eta_sd               =   1.3541492591064E-01
(PID.TID 0000.0001) %MON dynstat_eta_del2             =   5.7707770369606E-03
(PID.TID 0000.0001) %MON dynstat_uvel_max             =   1.2838188105294E-01
(PID.TID 0000.0001) %MON dynstat_uvel_min             =  -1.2889861140614E-01
(PID.TID 0000.0001) %MON dynstat_uvel_mean            =   1.1910181817239E-04
(PID.TID 0000.0001) %MON dynstat_uvel_sd              =   1.9385720679663E-02
(PID.TID 0000.0001) %MON dynstat_uvel_del2            =   5.4200982494111E-04
(PID.TID 0000.0001) %MON dynstat_vvel_max             =   5.4250720509889E-03
(PID.TID 0000.0001) %MON dynstat_vvel_min             =  -5.6683709807113E-03
(PID.TID 0000.0001) %MON dynstat_vvel_mean            =   6.7769792655078E-05
(PID.TID 0000.0001) %MON dynstat_vvel_sd              =   6.8765690753782E-04
(PID.TID 0000.0001) %MON dynstat_vvel_del2            =   6.3875549919596E-05
(PID.TID 0000.0001) %MON dynstat_wvel_max             =   1.1414040093408E-05
(PID.TID 0000.0001) %MON dynstat_wvel_min             =  -1.3725973901063E-05
(PID.TID 0000.0001) %MON dynstat_wvel_mean            =  -1.1535906538451E-22
(PID.TID 0000.0001) %MON dynstat_wvel_sd              =   3.9086464856689E-06
(PID.TID 0000.0001) %MON dynstat_wvel_del2            =   2.7940703314498E-07
(PID.TID 0000.0001) %MON dynstat_theta_max            =   1.3333923144340E+01
(PID.TID 0000.0001) %MON dynstat_theta_min            =   6.2538435218854E+00
(PID.TID 0000.0001) %MON dynstat_theta_mean           =   8.4641516679859E+00
(PID.TID 0000.0001) %MON dynstat_theta_sd             =   1.4058042754388E+00
(PID.TID 0000.0001) %MON dynstat_theta_del2           =   7.4057277295987E-03
(PID.TID 0000.0001) %MON dynstat_salt_max             =   1.1996938899036E+01
(PID.TID 0000.0001) %MON dynstat_salt_min             =   1.0464160781738E+01
(PID.TID 0000.0001) %MON dynstat_salt_mean            =   1.1308814007806E+01
(PID.TID 0000.0001) %MON dynstat_salt_sd              =   5.1707597836042E-01
(PID.TID 0000.0001) %MON dynstat_salt_del2            =   5.6576952244621E-04
(PID.TID 0000.0001) %MON advcfl_uvel_max              =   4.6403500106211E-03
(PID.TID 0000.0001) %MON advcfl_vvel_max              =   2.0406135530561E-04
(PID.TID 0000.0001) %MON advcfl_wvel_max              =   1.2882565746030E-03
(PID.TID 0000.0001) %MON advcfl_W_hf_max              =   1.3987359724399E-03
(PID.TID 0000.0001) %MON pe_b_mean                    =   5.2927580134299E-05
(PID.TID 0000.0001) %MON ke_max                       =   8.3078383990057E-03
(PID.TID 0000.0001) %MON ke_mean                      =   1.8813954389044E-04
(PID.TID 0000.0001) %MON ke_vol                       =   5.0981346415358E+14
(PID.TID 0000.0001) // =======================================================
(PID.TID 0000.0001) // End MONITOR dynamic field statistics
(PID.TID 0000.0001) // =======================================================
 cg2d: Sum(rhs),rhsMax =  -1.42628964194813E-14  9.09800000085351E-01
(PID.TID 0000.0001)                    cg2d_init_res =    1.38204141713982E-03
(PID.TID 0000.0001)                       cg2d_iters =    27
(PID.TID 0000.0001)                         cg2d_res =    7.19687489069017E-14
(PID.TID 0000.0001) // =======================================================
(PID.TID 0000.0001) // Begin MONITOR dynamic field statistics
(PID.TID 0000.0001) // =======================================================
(PID.TID 0000.0001) %MON time_tsnumber                =                    19
(PID.TID 0000.0001) %MON time_secondsf                =   6.8400000000000E+04
(PID.TID 0000.0001) %MON dynstat_eta_max              =   3.5848880358594E-01
(PID.TID 0000.0001) %MON dynstat_eta_min              =  -8.1589978992975E-02
(PID.TID 0000.0001) %MON dynstat_eta_mean             =   1.3259251912435E-15
(PID.TID 0000.0001) %MON dynstat_eta_sd               =   1.3532653581657E-01
(PID.TID 0000.0001) %MON dynstat_eta_del2             =   5.7702618847273E-03
(PID.TID 0000.0001) %MON dynstat_uvel_max             =   1.2909007775814E-01
(PID.TID 0000.0001) %MON dynstat_uvel_min             =  -1.2959107509697E-01
(PID.TID 0000.0001) %MON dynstat_uvel_mean            =   1.4477277083475E-04
(PID.TID 0000.0001) %MON dynstat_uvel_sd              =   1.9523999203980E-02
(PID.TID 0000.0001) %MON dynstat_uvel_del2            =   5.4000732531335E-04
(PID.TID 0000.0001) %MON dynstat_vvel_max             =   5.0446511480833E-03
(PID.TID 0000.0001) %MON dynstat_vvel_min             =  -5.2605060806485E-03
(PID.TID 0000.0001) %MON dynstat_vvel_mean            =   5.3983269688532E-05
(PID.TID 0000.0001) %MON dynstat_vvel_sd              =   8.8561468895406E-04
(PID.TID 0000.0001) %MON dynstat_vvel_del2            =   6.4687687584170E-05
(PID.TID 0000.0001) %MON dynstat_wvel_max             =   1.1581074146495E-05
(PID.TID 0000.0001) %MON dynstat_wvel_min             =  -1.7669115323184E-05
(PID.TID 0000.0001) %MON dynstat_wvel_mean            =   1.4227618064089E-22
(PID.TID 0000.0001) %MON dynstat_wvel_sd              =   4.1623263785504E-06
(PID.TID 0000.0001) %MON dynstat_wvel_del2            =   2.9527788246976E-07
(PID.TID 0000.0001) %MON dynstat_theta_max            =   1.3335213290784E+01
(PID.TID 0000.0001) %MON dynstat_theta_min            =   6.2538439464436E+00
(PID.TID 0000.0001) %MON dynstat_theta_mean           =   8.4641517738221E+00
(PID.TID 0000.0001) %MON dynstat_theta_sd             =   1.4058036921171E+00
(PID.TID 0000.0001) %MON dynstat_theta_del2           =   7.4053975972066E-03
(PID.TID 0000.0001) %MON dynstat_salt_max             =   1.1996989074263E+01
(PID.TID 0000.0001) %MON dynstat_salt_min             =   1.0464192677288E+01
(PID.TID 0000.0001) %MON dynstat_salt_mean            =   1.1308814072334E+01
(PID.TID 0000.0001) %MON dynstat_salt_sd              =   5.1706790826547E-01
(PID.TID 0000.0001) %MON dynstat_salt_del2            =   5.6586855125068E-04
(PID.TID 0000.0001) %MON advcfl_uvel_max              =   4.6652787034908E-03
(PID.TID 0000.0001) %MON advcfl_vvel_max              =   1.8937821890335E-04
(PID.TID 0000.0001) %MON advcfl_wvel_max              =   1.6723273462034E-03
(PID.TID 0000.0001) %MON advcfl_W_hf_max              =   1.8152201931201E-03
(PID.TID 0000.0001) %MON pe_b_mean                    =   5.2858507291432E-05
(PID.TID 0000.0001) %MON ke_max                       =   8.4012436743308E-03
(PID.TID 0000.0001) %MON ke_mean                      =   1.9098192636694E-04
(PID.TID 0000.0001) %MON ke_vol                       =   5.0981346415358E+14
(PID.TID 0000.0001) // =======================================================
(PID.TID 0000.0001) // End MONITOR dynamic field statistics
(PID.TID 0000.0001) // =======================================================
 cg2d: Sum(rhs),rhsMax =  -1.65804869833863E-14  9.09191855191894E-01
(PID.TID 0000.0001)                    cg2d_init_res =    1.18582738169378E-03
(PID.TID 0000.0001)                       cg2d_iters =    27
(PID.TID 0000.0001)                         cg2d_res =    1.09132214421156E-14
(PID.TID 0000.0001) // =======================================================
(PID.TID 0000.0001) // Begin MONITOR dynamic field statistics
(PID.TID 0000.0001) // =======================================================
(PID.TID 0000.0001) %MON time_tsnumber                =                    20
(PID.TID 0000.0001) %MON time_secondsf                =   7.2000000000000E+04
(PID.TID 0000.0001) %MON dynstat_eta_max              =   3.5834892935585E-01
(PID.TID 0000.0001) %MON dynstat_eta_min              =  -8.1767774681255E-02
(PID.TID 0000.0001) %MON dynstat_eta_mean             =   1.5068054199219E-15
(PID.TID 0000.0001) %MON dynstat_eta_sd               =   1.3528445384419E-01
(PID.TID 0000.0001) %MON dynstat_eta_del2             =   5.7692300319324E-03
(PID.TID 0000.0001) %MON dynstat_uvel_max             =   1.3064863030961E-01
(PID.TID 0000.0001) %MON dynstat_uvel_min             =  -1.3123228983053E-01
(PID.TID 0000.0001) %MON dynstat_uvel_mean            =   1.6041320479180E-04
(PID.TID 0000.0001) %MON dynstat_uvel_sd              =   1.9775781236389E-02
(PID.TID 0000.0001) %MON dynstat_uvel_del2            =   5.4436357647299E-04
(PID.TID 0000.0001) %MON dynstat_vvel_max             =   6.0776804146329E-03
(PID.TID 0000.0001) %MON dynstat_vvel_min             =  -6.4389084939931E-03
(PID.TID 0000.0001) %MON dynstat_vvel_mean            =   2.5813431069681E-05
(PID.TID 0000.0001) %MON dynstat_vvel_sd              =   1.2353795149188E-03
(PID.TID 0000.0001) %MON dynstat_vvel_del2            =   7.3763023818689E-05
(PID.TID 0000.0001) %MON dynstat_wvel_max             =   2.0751637757794E-05
(PID.TID 0000.0001) %MON dynstat_wvel_min             =  -2.0080595112533E-05
(PID.TID 0000.0001) %MON dynstat_wvel_mean            =   1.4612148282038E-22
(PID.TID 0000.0001) %MON dynstat_wvel_sd              =   5.2983502680025E-06
(PID.TID 0000.0001) %MON dynstat_wvel_del2            =   3.2682899506162E-07
(PID.TID 0000.0001) %MON dynstat_theta_max            =   1.3336573821569E+01
(PID.TID 0000.0001) %MON dynstat_theta_min            =   6.2538444006022E+00
(PID.TID 0000.0001) %MON dynstat_theta_mean           =   8.4641518495492E+00
(PID.TID 0000.0001) %MON dynstat_theta_sd             =   1.4058030115494E+00
(PID.TID 0000.0001) %MON dynstat_theta_del2           =   7.4046019008882E-03
(PID.TID 0000.0001) %MON dynstat_salt_max             =   1.1997041910235E+01
(PID.TID 0000.0001) %MON dynstat_salt_min             =   1.0464225169164E+01
(PID.TID 0000.0001) %MON dynstat_salt_mean            =   1.1308814117661E+01
(PID.TID 0000.0001) %MON dynstat_salt_sd              =   5.1705983777399E-01
(PID.TID 0000.0001) %MON dynstat_salt_del2            =   5.6597633988306E-04
(PID.TID 0000.0001) %MON advcfl_uvel_max              =   4.7243624338990E-03
(PID.TID 0000.0001) %MON advcfl_vvel_max              =   2.3180070578375E-04
(PID.TID 0000.0001) %MON advcfl_wvel_max              =   1.9136368419422E-03
(PID.TID 0000.0001) %MON advcfl_W_hf_max              =   2.0769448784604E-03
(PID.TID 0000.0001) %MON pe_b_mean                    =   5.2825637989408E-05
(PID.TID 0000.0001) %MON ke_max                       =   8.6244867234960E-03
(PID.TID 0000.0001) %MON ke_mean                      =   1.9628709755070E-04
(PID.TID 0000.0001) %MON ke_vol                       =   5.0981346415358E+14
(PID.TID 0000.0001) // =======================================================
(PID.TID 0000.0001) // End MONITOR dynamic field statistics
(PID.TID 0000.0001) // =======================================================
 Compute Stats, Diag. #     23  ETAN      vol(   0 ): 1.500E+12  Parms: SM      M1      
 Compute Stats, Diag. #     30  UVEL      vol(   0 ): 2.549E+15  Parms: UUR     MR      
 Compute Stats, Diag. #     31  VVEL      vol(   0 ): 2.449E+15  Parms: VVR     MR      
 Compute Stats, Diag. #     32  WVEL      vol(   0 ): 2.422E+15  Parms: WM      LR      
 Compute Stats, Diag. #     26  THETA     vol(   0 ): 2.549E+15  Parms: SMR     MR      
 Compute Stats, Diag. #     73  MXLDEPTH  vol(   0 ): 1.500E+12  Parms: SM      M1      
 Compute Stats, Diag. #    179  SubMesLf  vol(   0 ): 1.500E+12  Parms: SM P    M1      
 Compute Stats, Diag. #    181  SubMpsiY  vol(   0 ): 1.450E+12  Parms: VV      M1      
 Compute Stats, Diag. #    190  GM_PsiY   vol(   0 ): 2.330E+15  Parms: VV      LR      
 Compute Stats, Diag. #    187  GM_Kwy    vol(   0 ): 2.422E+15  Parms: VM      LR      
 Compute Stats, Diag. #    188  GM_Kwz    vol(   0 ): 2.422E+15  Parms: WM P    LR      
 Compute Stats, Diag. #    183  GM_Kvy    vol(   0 ): 2.449E+15  Parms: VV P    MR      
 Compute Stats, Diag. #    185  GM_Kvz    vol(   0 ): 2.449E+15  Parms: VV      MR      
 cg2d: Sum(rhs),rhsMax =  -1.92727778181023E-14  9.08402201312101E-01
(PID.TID 0000.0001)                    cg2d_init_res =    1.42512606454981E-03
(PID.TID 0000.0001)                       cg2d_iters =    27
(PID.TID 0000.0001)                         cg2d_res =    9.50464724134416E-14
(PID.TID 0000.0001) // =======================================================
(PID.TID 0000.0001) // Begin MONITOR dynamic field statistics
(PID.TID 0000.0001) // =======================================================
(PID.TID 0000.0001) %MON time_tsnumber                =                    21
(PID.TID 0000.0001) %MON time_secondsf                =   7.5600000000000E+04
(PID.TID 0000.0001) %MON dynstat_eta_max              =   3.5832374202840E-01
(PID.TID 0000.0001) %MON dynstat_eta_min              =  -8.1746324956337E-02
(PID.TID 0000.0001) %MON dynstat_eta_mean             =   1.6024907430013E-15
(PID.TID 0000.0001) %MON dynstat_eta_sd               =   1.3529753666561E-01
(PID.TID 0000.0001) %MON dynstat_eta_del2             =   5.7678435780979E-03
(PID.TID 0000.0001) %MON dynstat_uvel_max             =   1.3280631047582E-01
(PID.TID 0000.0001) %MON dynstat_uvel_min             =  -1.3355962335401E-01
(PID.TID 0000.0001) %MON dynstat_uvel_mean            =   1.6305857807157E-04
(PID.TID 0000.0001) %MON dynstat_uvel_sd              =   2.0108367886367E-02
(PID.TID 0000.0001) %MON dynstat_uvel_del2            =   5.5433338998023E-04
(PID.TID 0000.0001) %MON dynstat_vvel_max             =   8.5898048782731E-03
(PID.TID 0000.0001) %MON dynstat_vvel_min             =  -9.1020197433025E-03
(PID.TID 0000.0001) %MON dynstat_vvel_mean            =  -4.8384025543858E-06
(PID.TID 0000.0001) %MON dynstat_vvel_sd              =   1.5224306294628E-03
(PID.TID 0000.0001) %MON dynstat_vvel_del2            =   8.5799873013012E-05
(PID.TID 0000.0001) %MON dynstat_wvel_max             =   2.7822798862094E-05
(PID.TID 0000.0001) %MON dynstat_wvel_min             =  -2.0707274800796E-05
(PID.TID 0000.0001) %MON dynstat_wvel_mean            =   1.9178444620174E-22
(PID.TID 0000.0001) %MON dynstat_wvel_sd              =   6.5050562769802E-06
(PID.TID 0000.0001) %MON dynstat_wvel_del2            =   3.6310458337281E-07
(PID.TID 0000.0001) %MON dynstat_theta_max            =   1.3337981517296E+01
(PID.TID 0000.0001) %MON dynstat_theta_min            =   6.2538449029513E+00
(PID.TID 0000.0001) %MON dynstat_theta_mean           =   8.4641518603872E+00
(PID.TID 0000.0001) %MON dynstat_theta_sd             =   1.4058021607215E+00
(PID.TID 0000.0001) %MON dynstat_theta_del2           =   7.4035572586580E-03
(PID.TID 0000.0001) %MON dynstat_salt_max             =   1.1997096480522E+01
(PID.TID 0000.0001) %MON dynstat_salt_min             =   1.0464258099646E+01
(PID.TID 0000.0001) %MON dynstat_salt_mean            =   1.1308814122589E+01
(PID.TID 0000.0001) %MON dynstat_salt_sd              =   5.1705176731477E-01
(PID.TID 0000.0001) %MON dynstat_salt_del2            =   5.6609160017978E-04
(PID.TID 0000.0001) %MON advcfl_uvel_max              =   4.8081464407443E-03
(PID.TID 0000.0001) %MON advcfl_vvel_max              =   3.2767271075889E-04
(PID.TID 0000.0001) %MON advcfl_wvel_max              =   2.5609376550037E-03
(PID.TID 0000.0001) %MON advcfl_W_hf_max              =   2.7859773790098E-03
(PID.TID 0000.0001) %MON pe_b_mean                    =   5.2835855598094E-05
(PID.TID 0000.0001) %MON ke_max                       =   8.9417458790118E-03
(PID.TID 0000.0001) %MON ke_mean                      =   2.0329997471461E-04
(PID.TID 0000.0001) %MON ke_vol                       =   5.0981346415358E+14
(PID.TID 0000.0001) // =======================================================
(PID.TID 0000.0001) // End MONITOR dynamic field statistics
(PID.TID 0000.0001) // =======================================================
 cg2d: Sum(rhs),rhsMax =  -2.08791317568569E-14  9.07467917773289E-01
(PID.TID 0000.0001)                    cg2d_init_res =    1.79833350948036E-03
(PID.TID 0000.0001)                       cg2d_iters =    28
(PID.TID 0000.0001)                         cg2d_res =    1.44263150818544E-16
(PID.TID 0000.0001) // =======================================================
(PID.TID 0000.0001) // Begin MONITOR dynamic field statistics
(PID.TID 0000.0001) // =======================================================
(PID.TID 0000.0001) %MON time_tsnumber                =                    22
(PID.TID 0000.0001) %MON time_secondsf                =   7.9200000000000E+04
(PID.TID 0000.0001) %MON dynstat_eta_max              =   3.5836093367905E-01
(PID.TID 0000.0001) %MON dynstat_eta_min              =  -8.1574213369467E-02
(PID.TID 0000.0001) %MON dynstat_eta_mean             =   1.8774668375651E-15
(PID.TID 0000.0001) %MON dynstat_eta_sd               =   1.3533938335758E-01
(PID.TID 0000.0001) %MON dynstat_eta_del2             =   5.7662196825787E-03
(PID.TID 0000.0001) %MON dynstat_uvel_max             =   1.3524705115472E-01
(PID.TID 0000.0001) %MON dynstat_uvel_min             =  -1.3622608187069E-01
(PID.TID 0000.0001) %MON dynstat_uvel_mean            =   1.5444180687403E-04
(PID.TID 0000.0001) %MON dynstat_uvel_sd              =   2.0480681606958E-02
(PID.TID 0000.0001) %MON dynstat_uvel_del2            =   5.6857284841649E-04
(PID.TID 0000.0001) %MON dynstat_vvel_max             =   1.0170707441826E-02
(PID.TID 0000.0001) %MON dynstat_vvel_min             =  -1.0763869050424E-02
(PID.TID 0000.0001) %MON dynstat_vvel_mean            =  -2.7590933649671E-05
(PID.TID 0000.0001) %MON dynstat_vvel_sd              =   1.6690990103262E-03
(PID.TID 0000.0001) %MON dynstat_vvel_del2            =   9.5954074122047E-05
(PID.TID 0000.0001) %MON dynstat_wvel_max             =   3.1944936003282E-05
(PID.TID 0000.0001) %MON dynstat_wvel_min             =  -1.9487604950068E-05
(PID.TID 0000.0001) %MON dynstat_wvel_mean            =   4.2298323974320E-23
(PID.TID 0000.0001) %MON dynstat_wvel_sd              =   7.3265619979542E-06
(PID.TID 0000.0001) %MON dynstat_wvel_del2            =   3.9379207239072E-07
(PID.TID 0000.0001) %MON dynstat_theta_max            =   1.3339394066538E+01
(PID.TID 0000.0001) %MON dynstat_theta_min            =   6.2538454584947E+00
(PID.TID 0000.0001) %MON dynstat_theta_mean           =   8.4641518254120E+00
(PID.TID 0000.0001) %MON dynstat_theta_sd             =   1.4058011736412E+00
(PID.TID 0000.0001) %MON dynstat_theta_del2           =   7.4020616239722E-03
(PID.TID 0000.0001) %MON dynstat_salt_max             =   1.1997151173624E+01
(PID.TID 0000.0001) %MON dynstat_salt_min             =   1.0464291391377E+01
(PID.TID 0000.0001) %MON dynstat_salt_mean            =   1.1308814099508E+01
(PID.TID 0000.0001) %MON dynstat_salt_sd              =   5.1704369652855E-01
(PID.TID 0000.0001) %MON dynstat_salt_del2            =   5.6619677951718E-04
(PID.TID 0000.0001) %MON advcfl_uvel_max              =   4.9041389473450E-03
(PID.TID 0000.0001) %MON advcfl_vvel_max              =   3.8749928581528E-04
(PID.TID 0000.0001) %MON advcfl_wvel_max              =   3.0003169201768E-03
(PID.TID 0000.0001) %MON advcfl_W_hf_max              =   3.2600636356137E-03
(PID.TID 0000.0001) %MON pe_b_mean                    =   5.2868544259748E-05
(PID.TID 0000.0001) %MON ke_max                       =   9.3055219088375E-03
(PID.TID 0000.0001) %MON ke_mean                      =   2.1107975899786E-04
(PID.TID 0000.0001) %MON ke_vol                       =   5.0981346415358E+14
(PID.TID 0000.0001) // =======================================================
(PID.TID 0000.0001) // End MONITOR dynamic field statistics
(PID.TID 0000.0001) // =======================================================
 cg2d: Sum(rhs),rhsMax =  -2.36685671062276E-14  9.06397099856175E-01
(PID.TID 0000.0001)                    cg2d_init_res =    2.12481026240971E-03
(PID.TID 0000.0001)                       cg2d_iters =    28
(PID.TID 0000.0001)                         cg2d_res =    2.46776668267190E-16
(PID.TID 0000.0001) // =======================================================
(PID.TID 0000.0001) // Begin MONITOR dynamic field statistics
(PID.TID 0000.0001) // =======================================================
(PID.TID 0000.0001) %MON time_tsnumber                =                    23
(PID.TID 0000.0001) %MON time_secondsf                =   8.2800000000000E+04
(PID.TID 0000.0001) %MON dynstat_eta_max              =   3.5840039820090E-01
(PID.TID 0000.0001) %MON dynstat_eta_min              =  -8.1338925792109E-02
(PID.TID 0000.0001) %MON dynstat_eta_mean             =   2.1212895711263E-15
(PID.TID 0000.0001) %MON dynstat_eta_sd               =   1.3538199746761E-01
(PID.TID 0000.0001) %MON dynstat_eta_del2             =   5.7646700119898E-03
(PID.TID 0000.0001) %MON dynstat_uvel_max             =   1.3762940768548E-01
(PID.TID 0000.0001) %MON dynstat_uvel_min             =  -1.3884730590034E-01
(PID.TID 0000.0001) %MON dynstat_uvel_mean            =   1.3958545015152E-04
(PID.TID 0000.0001) %MON dynstat_uvel_sd              =   2.0846861480334E-02
(PID.TID 0000.0001) %MON dynstat_uvel_del2            =   5.8527174855716E-04
(PID.TID 0000.0001) %MON dynstat_vvel_max             =   1.0692262123989E-02
(PID.TID 0000.0001) %MON dynstat_vvel_min             =  -1.1277224636389E-02
(PID.TID 0000.0001) %MON dynstat_vvel_mean            =  -3.6638812635331E-05
(PID.TID 0000.0001) %MON dynstat_vvel_sd              =   1.6538942681097E-03
(PID.TID 0000.0001) %MON dynstat_vvel_del2            =   1.0143684240884E-04
(PID.TID 0000.0001) %MON dynstat_wvel_max             =   3.2764561085663E-05
(PID.TID 0000.0001) %MON dynstat_wvel_min             =  -1.6561361334873E-05
(PID.TID 0000.0001) %MON dynstat_wvel_mean            =  -2.3071813076902E-23
(PID.TID 0000.0001) %MON dynstat_wvel_sd              =   7.5799385215626E-06
(PID.TID 0000.0001) %MON dynstat_wvel_del2            =   4.1190186941848E-07
(PID.TID 0000.0001) %MON dynstat_theta_max            =   1.3340806463734E+01
(PID.TID 0000.0001) %MON dynstat_theta_min            =   6.2538460677110E+00
(PID.TID 0000.0001) %MON dynstat_theta_mean           =   8.4641517795817E+00
(PID.TID 0000.0001) %MON dynstat_theta_sd             =   1.4058001828673E+00
(PID.TID 0000.0001) %MON dynstat_theta_del2           =   7.4005713560666E-03
(PID.TID 0000.0001) %MON dynstat_salt_max             =   1.1997205861391E+01
(PID.TID 0000.0001) %MON dynstat_salt_min             =   1.0464325033289E+01
(PID.TID 0000.0001) %MON dynstat_salt_mean            =   1.1308814070366E+01
(PID.TID 0000.0001) %MON dynstat_salt_sd              =   5.1703562516905E-01
(PID.TID 0000.0001) %MON dynstat_salt_del2            =   5.6630255482082E-04
(PID.TID 0000.0001) %MON advcfl_uvel_max              =   4.9985030124122E-03
(PID.TID 0000.0001) %MON advcfl_vvel_max              =   4.0598008691001E-04
(PID.TID 0000.0001) %MON advcfl_wvel_max              =   3.1252579854260E-03
(PID.TID 0000.0001) %MON advcfl_W_hf_max              =   3.3928566749687E-03
(PID.TID 0000.0001) %MON pe_b_mean                    =   5.2901842780800E-05
(PID.TID 0000.0001) %MON ke_max                       =   9.6630655333139E-03
(PID.TID 0000.0001) %MON ke_mean                      =   2.1862023962766E-04
(PID.TID 0000.0001) %MON ke_vol                       =   5.0981346415358E+14
(PID.TID 0000.0001) // =======================================================
(PID.TID 0000.0001) // End MONITOR dynamic field statistics
(PID.TID 0000.0001) // =======================================================
 cg2d: Sum(rhs),rhsMax =  -2.65343302885412E-14  9.05294826108744E-01
(PID.TID 0000.0001)                    cg2d_init_res =    2.12361122377248E-03
(PID.TID 0000.0001)                       cg2d_iters =    28
(PID.TID 0000.0001)                         cg2d_res =    2.93418596254741E-16
(PID.TID 0000.0001) // =======================================================
(PID.TID 0000.0001) // Begin MONITOR dynamic field statistics
(PID.TID 0000.0001) // =======================================================
(PID.TID 0000.0001) %MON time_tsnumber                =                    24
(PID.TID 0000.0001) %MON time_secondsf                =   8.6400000000000E+04
(PID.TID 0000.0001) %MON dynstat_eta_max              =   3.5841207852702E-01
(PID.TID 0000.0001) %MON dynstat_eta_min              =  -8.1131955646427E-02
(PID.TID 0000.0001) %MON dynstat_eta_mean             =   2.1651585896810E-15
(PID.TID 0000.0001) %MON dynstat_eta_sd               =   1.3541189407152E-01
(PID.TID 0000.0001) %MON dynstat_eta_del2             =   5.7632500031033E-03
(PID.TID 0000.0001) %MON dynstat_uvel_max             =   1.3962938206078E-01
(PID.TID 0000.0001) %MON dynstat_uvel_min             =  -1.4105486286721E-01
(PID.TID 0000.0001) %MON dynstat_uvel_mean            =   1.2455619640323E-04
(PID.TID 0000.0001) %MON dynstat_uvel_sd              =   2.1161261693984E-02
(PID.TID 0000.0001) %MON dynstat_uvel_del2            =   6.0233907044990E-04
(PID.TID 0000.0001) %MON dynstat_vvel_max             =   1.0143214259416E-02
(PID.TID 0000.0001) %MON dynstat_vvel_min             =  -1.0634489100186E-02
(PID.TID 0000.0001) %MON dynstat_vvel_mean            =  -3.1839616146873E-05
(PID.TID 0000.0001) %MON dynstat_vvel_sd              =   1.4917166248046E-03
(PID.TID 0000.0001) %MON dynstat_vvel_del2            =   1.0124567212918E-04
(PID.TID 0000.0001) %MON dynstat_wvel_max             =   3.0314512948753E-05
(PID.TID 0000.0001) %MON dynstat_wvel_min             =  -1.5431701673474E-05
(PID.TID 0000.0001) %MON dynstat_wvel_mean            =  -7.6906043589672E-24
(PID.TID 0000.0001) %MON dynstat_wvel_sd              =   7.2474659868949E-06
(PID.TID 0000.0001) %MON dynstat_wvel_del2            =   4.1435064656536E-07
(PID.TID 0000.0001) %MON dynstat_theta_max            =   1.3342183380438E+01
(PID.TID 0000.0001) %MON dynstat_theta_min            =   6.2538467294939E+00
(PID.TID 0000.0001) %MON dynstat_theta_mean           =   8.4641517453410E+00
(PID.TID 0000.0001) %MON dynstat_theta_sd             =   1.4057991771170E+00
(PID.TID 0000.0001) %MON dynstat_theta_del2           =   7.3991475058861E-03
(PID.TID 0000.0001) %MON dynstat_salt_max             =   1.1997259128706E+01
(PID.TID 0000.0001) %MON dynstat_salt_min             =   1.0464359044714E+01
(PID.TID 0000.0001) %MON dynstat_salt_mean            =   1.1308814049353E+01
(PID.TID 0000.0001) %MON dynstat_salt_sd              =   5.1702755173992E-01
(PID.TID 0000.0001) %MON dynstat_salt_del2            =   5.6640495434598E-04
(PID.TID 0000.0001) %MON advcfl_uvel_max              =   5.0779750632197E-03
(PID.TID 0000.0001) %MON advcfl_vvel_max              =   3.8284160760671E-04
(PID.TID 0000.0001) %MON advcfl_wvel_max              =   2.9360547725989E-03
(PID.TID 0000.0001) %MON advcfl_W_hf_max              =   3.1847398953973E-03
(PID.TID 0000.0001) %MON pe_b_mean                    =   5.2925210142802E-05
(PID.TID 0000.0001) %MON ke_max                       =   9.9637651073257E-03
(PID.TID 0000.0001) %MON ke_mean                      =   2.2497670963934E-04
(PID.TID 0000.0001) %MON ke_vol                       =   5.0981346415358E+14
(PID.TID 0000.0001) // =======================================================
(PID.TID 0000.0001) // End MONITOR dynamic field statistics
(PID.TID 0000.0001) // =======================================================
 cg2d: Sum(rhs),rhsMax =  -2.83453815974610E-14  9.04249570396247E-01
(PID.TID 0000.0001)                    cg2d_init_res =    1.99041872937118E-03
(PID.TID 0000.0001)                       cg2d_iters =    28
(PID.TID 0000.0001)                         cg2d_res =    3.32306493171400E-16
(PID.TID 0000.0001) // =======================================================
(PID.TID 0000.0001) // Begin MONITOR dynamic field statistics
(PID.TID 0000.0001) // =======================================================
(PID.TID 0000.0001) %MON time_tsnumber                =                    25
(PID.TID 0000.0001) %MON time_secondsf                =   9.0000000000000E+04
(PID.TID 0000.0001) %MON dynstat_eta_max              =   3.5839806878832E-01
(PID.TID 0000.0001) %MON dynstat_eta_min              =  -8.1016458203922E-02
(PID.TID 0000.0001) %MON dynstat_eta_mean             =   2.2255579630534E-15
(PID.TID 0000.0001) %MON dynstat_eta_sd               =   1.3543014497743E-01
(PID.TID 0000.0001) %MON dynstat_eta_del2             =   5.7621687480595E-03
(PID.TID 0000.0001) %MON dynstat_uvel_max             =   1.4097858233432E-01
(PID.TID 0000.0001) %MON dynstat_uvel_min             =  -1.4254446661339E-01
(PID.TID 0000.0001) %MON dynstat_uvel_mean            =   1.1426006141307E-04
(PID.TID 0000.0001) %MON dynstat_uvel_sd              =   2.1384440908713E-02
(PID.TID 0000.0001) %MON dynstat_uvel_del2            =   6.1766129341640E-04
(PID.TID 0000.0001) %MON dynstat_vvel_max             =   8.6237923912199E-03
(PID.TID 0000.0001) %MON dynstat_vvel_min             =  -8.9589490615855E-03
(PID.TID 0000.0001) %MON dynstat_vvel_mean            =  -1.7696017423558E-05
(PID.TID 0000.0001) %MON dynstat_vvel_sd              =   1.2321861812493E-03
(PID.TID 0000.0001) %MON dynstat_vvel_del2            =   9.5792281597449E-05
(PID.TID 0000.0001) %MON dynstat_wvel_max             =   2.4983460302218E-05
(PID.TID 0000.0001) %MON dynstat_wvel_min             =  -1.3724473843419E-05
(PID.TID 0000.0001) %MON dynstat_wvel_mean            =   8.4596647948639E-23
(PID.TID 0000.0001) %MON dynstat_wvel_sd              =   6.4432863527882E-06
(PID.TID 0000.0001) %MON dynstat_wvel_del2            =   4.0156047803376E-07
(PID.TID 0000.0001) %MON dynstat_theta_max            =   1.3343611969674E+01
(PID.TID 0000.0001) %MON dynstat_theta_min            =   6.2538474371661E+00
(PID.TID 0000.0001) %MON dynstat_theta_mean           =   8.4641517272513E+00
(PID.TID 0000.0001) %MON dynstat_theta_sd             =   1.4057981937012E+00
(PID.TID 0000.0001) %MON dynstat_theta_del2           =   7.3979618477594E-03
(PID.TID 0000.0001) %MON dynstat_salt_max             =   1.1997314246677E+01
(PID.TID 0000.0001) %MON dynstat_salt_min             =   1.0464393449846E+01
(PID.TID 0000.0001) %MON dynstat_salt_mean            =   1.1308814038981E+01
(PID.TID 0000.0001) %MON dynstat_salt_sd              =   5.1701947715220E-01
(PID.TID 0000.0001) %MON dynstat_salt_del2            =   5.6651040335266E-04
(PID.TID 0000.0001) %MON advcfl_uvel_max              =   5.1316007980819E-03
(PID.TID 0000.0001) %MON advcfl_vvel_max              =   3.2252216621708E-04
(PID.TID 0000.0001) %MON advcfl_wvel_max              =   2.4668010069388E-03
(PID.TID 0000.0001) %MON advcfl_W_hf_max              =   2.6728383397607E-03
(PID.TID 0000.0001) %MON pe_b_mean                    =   5.2939477694879E-05
(PID.TID 0000.0001) %MON ke_max                       =   1.0165937061803E-02
(PID.TID 0000.0001) %MON ke_mean                      =   2.2938319876349E-04
(PID.TID 0000.0001) %MON ke_vol                       =   5.0981346415358E+14
(PID.TID 0000.0001) // =======================================================
(PID.TID 0000.0001) // End MONITOR dynamic field statistics
(PID.TID 0000.0001) // =======================================================
 Computing Diagnostic #     23  ETAN         Counter:       1   Parms: SM      M1      
 Computing Diagnostic #     25  DETADT2      Counter:       1   Parms: SM      M1      
 Computing Diagnostic #     71  PHIBOT       Counter:       1   Parms: SM      M1      
 Computing Diagnostic #     73  MXLDEPTH     Counter:       1   Parms: SM      M1      
 Computing Diagnostic #    195  GM_BVPcW     Counter:       1   Parms: SU P    M1      
 Computing Diagnostic #    196  GM_BVPcS     Counter:       1   Parms: SV P    M1      
 Computing Diagnostic #    179  SubMesLf     Counter:       1   Parms: SM P    M1      
 Computing Diagnostic #    181  SubMpsiY     Counter:       1   Parms: VV      M1      
           Vector  Mate for  SubMpsiY     Diagnostic #    180  SubMpsiX not enabled
 Computing Diagnostic #     74  DRHODR       Counter:       1   Parms: SM      LR      
 Computing Diagnostic #     64  RHOAnoma     Counter:       1   Parms: SMR     MR      
 Computing Diagnostic #    187  GM_Kwy       Counter:       1   Parms: VM      LR      
           Vector  Mate for  GM_Kwy       Diagnostic #    186  GM_Kwx   not enabled
 Computing Diagnostic #    188  GM_Kwz       Counter:       1   Parms: WM P    LR      
 Computing Diagnostic #    183  GM_Kvy       Counter:       1   Parms: VV P    MR      
           Vector  Mate for  GM_Kvy       Diagnostic #    182  GM_Kux   not enabled
 Computing Diagnostic #     26  THETA        Counter:       1   Parms: SMR     MR      
 Computing Diagnostic #    190  GM_PsiY      Counter:       1   Parms: VV      LR      
           Vector  Mate for  GM_PsiY      Diagnostic #    189  GM_PsiX  not enabled
 Computing Diagnostic #    185  GM_Kvz       Counter:       1   Parms: VV      MR      
           Vector  Mate for  GM_Kvz       Diagnostic #    184  GM_Kuz   not enabled
 Compute Stats, Diag. #     23  ETAN      vol(   0 ): 1.500E+12  Parms: SM      M1      
 Compute Stats, Diag. #     30  UVEL      vol(   0 ): 2.549E+15  Parms: UUR     MR      
 Compute Stats, Diag. #     31  VVEL      vol(   0 ): 2.449E+15  Parms: VVR     MR      
 Compute Stats, Diag. #     32  WVEL      vol(   0 ): 2.422E+15  Parms: WM      LR      
 Compute Stats, Diag. #     26  THETA     vol(   0 ): 2.549E+15  Parms: SMR     MR      
 Compute Stats, Diag. #     73  MXLDEPTH  vol(   0 ): 1.500E+12  Parms: SM      M1      
 Compute Stats, Diag. #    179  SubMesLf  vol(   0 ): 1.500E+12  Parms: SM P    M1      
 Compute Stats, Diag. #    181  SubMpsiY  vol(   0 ): 1.450E+12  Parms: VV      M1      
 Compute Stats, Diag. #    190  GM_PsiY   vol(   0 ): 2.330E+15  Parms: VV      LR      
 Compute Stats, Diag. #    187  GM_Kwy    vol(   0 ): 2.422E+15  Parms: VM      LR      
 Compute Stats, Diag. #    188  GM_Kwz    vol(   0 ): 2.422E+15  Parms: WM P    LR      
 Compute Stats, Diag. #    183  GM_Kvy    vol(   0 ): 2.449E+15  Parms: VV P    MR      
 Compute Stats, Diag. #    185  GM_Kvz    vol(   0 ): 2.449E+15  Parms: VV      MR      
(PID.TID 0000.0001) DIAGSTATS_CLOSE_IO: close file: dynStDiag.0000000000.txt , unit=     9
(PID.TID 0000.0001) %CHECKPOINT        25 ckptA
(PID.TID 0000.0001)   Seconds in section "ALL                    [THE_MODEL_MAIN]":
(PID.TID 0000.0001)           User time:   1.7500000000000000
(PID.TID 0000.0001)         System time:  2.00000000000000004E-002
(PID.TID 0000.0001)     Wall clock time:   1.8047111034393311
(PID.TID 0000.0001)          No. starts:           1
(PID.TID 0000.0001)           No. stops:           1
(PID.TID 0000.0001)   Seconds in section "INITIALISE_FIXED       [THE_MODEL_MAIN]":
(PID.TID 0000.0001)           User time:  2.00000000000000004E-002
(PID.TID 0000.0001)         System time:   0.0000000000000000
(PID.TID 0000.0001)     Wall clock time:  3.58660221099853516E-002
(PID.TID 0000.0001)          No. starts:           1
(PID.TID 0000.0001)           No. stops:           1
(PID.TID 0000.0001)   Seconds in section "THE_MAIN_LOOP          [THE_MODEL_MAIN]":
(PID.TID 0000.0001)           User time:   1.7300000000000000
(PID.TID 0000.0001)         System time:  2.00000000000000004E-002
(PID.TID 0000.0001)     Wall clock time:   1.7688038349151611
(PID.TID 0000.0001)          No. starts:           1
(PID.TID 0000.0001)           No. stops:           1
(PID.TID 0000.0001)   Seconds in section "INITIALISE_VARIA    [THE_MAIN_LOOP]":
(PID.TID 0000.0001)           User time:  2.00000000000000004E-002
(PID.TID 0000.0001)         System time:   0.0000000000000000
(PID.TID 0000.0001)     Wall clock time:  3.81751060485839844E-002
(PID.TID 0000.0001)          No. starts:           1
(PID.TID 0000.0001)           No. stops:           1
(PID.TID 0000.0001)   Seconds in section "MAIN LOOP           [THE_MAIN_LOOP]":
(PID.TID 0000.0001)           User time:   1.7100000000000000
(PID.TID 0000.0001)         System time:  2.00000000000000004E-002
(PID.TID 0000.0001)     Wall clock time:   1.7306008338928223
(PID.TID 0000.0001)          No. starts:           1
(PID.TID 0000.0001)           No. stops:           1
(PID.TID 0000.0001)   Seconds in section "FORWARD_STEP        [THE_MAIN_LOOP]":
(PID.TID 0000.0001)           User time:   1.7099999999999986
(PID.TID 0000.0001)         System time:  1.99999999999999935E-002
(PID.TID 0000.0001)     Wall clock time:   1.7303650379180908
(PID.TID 0000.0001)          No. starts:          25
(PID.TID 0000.0001)           No. stops:          25
(PID.TID 0000.0001)   Seconds in section "DO_STATEVARS_DIAGS  [FORWARD_STEP]":
(PID.TID 0000.0001)           User time:  1.00000000000000089E-002
(PID.TID 0000.0001)         System time:   0.0000000000000000
(PID.TID 0000.0001)     Wall clock time:  6.93893432617187500E-003
(PID.TID 0000.0001)          No. starts:          50
(PID.TID 0000.0001)           No. stops:          50
(PID.TID 0000.0001)   Seconds in section "LOAD_FIELDS_DRIVER  [FORWARD_STEP]":
(PID.TID 0000.0001)           User time:   0.0000000000000000
(PID.TID 0000.0001)         System time:   0.0000000000000000
(PID.TID 0000.0001)     Wall clock time:  6.87360763549804688E-004
(PID.TID 0000.0001)          No. starts:          25
(PID.TID 0000.0001)           No. stops:          25
(PID.TID 0000.0001)   Seconds in section "EXTERNAL_FLDS_LOAD [LOAD_FLDS_DRIVER]":
(PID.TID 0000.0001)           User time:   0.0000000000000000
(PID.TID 0000.0001)         System time:   0.0000000000000000
(PID.TID 0000.0001)     Wall clock time:  2.29358673095703125E-004
(PID.TID 0000.0001)          No. starts:          25
(PID.TID 0000.0001)           No. stops:          25
(PID.TID 0000.0001)   Seconds in section "DO_ATMOSPHERIC_PHYS [FORWARD_STEP]":
(PID.TID 0000.0001)           User time:   0.0000000000000000
(PID.TID 0000.0001)         System time:   0.0000000000000000
(PID.TID 0000.0001)     Wall clock time:  2.28881835937500000E-004
(PID.TID 0000.0001)          No. starts:          25
(PID.TID 0000.0001)           No. stops:          25
(PID.TID 0000.0001)   Seconds in section "DO_OCEANIC_PHYS     [FORWARD_STEP]":
(PID.TID 0000.0001)           User time:  0.39000000000000057
(PID.TID 0000.0001)         System time:   0.0000000000000000
(PID.TID 0000.0001)     Wall clock time:  0.34943389892578125
(PID.TID 0000.0001)          No. starts:          25
(PID.TID 0000.0001)           No. stops:          25
(PID.TID 0000.0001)   Seconds in section "THERMODYNAMICS      [FORWARD_STEP]":
(PID.TID 0000.0001)           User time:  0.50999999999999934
(PID.TID 0000.0001)         System time:  9.99999999999999847E-003
(PID.TID 0000.0001)     Wall clock time:  0.54864621162414551
(PID.TID 0000.0001)          No. starts:          25
(PID.TID 0000.0001)           No. stops:          25
(PID.TID 0000.0001)   Seconds in section "DYNAMICS            [FORWARD_STEP]":
(PID.TID 0000.0001)           User time:  0.58999999999999986
(PID.TID 0000.0001)         System time:  9.99999999999999847E-003
(PID.TID 0000.0001)     Wall clock time:  0.58817791938781738
(PID.TID 0000.0001)          No. starts:          25
(PID.TID 0000.0001)           No. stops:          25
(PID.TID 0000.0001)   Seconds in section "SOLVE_FOR_PRESSURE  [FORWARD_STEP]":
(PID.TID 0000.0001)           User time:  1.00000000000000089E-002
(PID.TID 0000.0001)         System time:   0.0000000000000000
(PID.TID 0000.0001)     Wall clock time:  3.06787490844726563E-002
(PID.TID 0000.0001)          No. starts:          25
(PID.TID 0000.0001)           No. stops:          25
(PID.TID 0000.0001)   Seconds in section "MOM_CORRECTION_STEP [FORWARD_STEP]":
(PID.TID 0000.0001)           User time:  3.99999999999998135E-002
(PID.TID 0000.0001)         System time:   0.0000000000000000
(PID.TID 0000.0001)     Wall clock time:  2.05535888671875000E-002
(PID.TID 0000.0001)          No. starts:          25
(PID.TID 0000.0001)           No. stops:          25
(PID.TID 0000.0001)   Seconds in section "TRC_CORRECTION_STEP [FORWARD_STEP]":
(PID.TID 0000.0001)           User time:  6.00000000000000533E-002
(PID.TID 0000.0001)         System time:   0.0000000000000000
(PID.TID 0000.0001)     Wall clock time:  5.25777339935302734E-002
(PID.TID 0000.0001)          No. starts:          25
(PID.TID 0000.0001)           No. stops:          25
(PID.TID 0000.0001)   Seconds in section "BLOCKING_EXCHANGES  [FORWARD_STEP]":
(PID.TID 0000.0001)           User time:  5.00000000000000444E-002
(PID.TID 0000.0001)         System time:   0.0000000000000000
(PID.TID 0000.0001)     Wall clock time:  6.17876052856445313E-002
(PID.TID 0000.0001)          No. starts:          25
(PID.TID 0000.0001)           No. stops:          25
(PID.TID 0000.0001)   Seconds in section "MONITOR             [FORWARD_STEP]":
(PID.TID 0000.0001)           User time:  4.00000000000000355E-002
(PID.TID 0000.0001)         System time:   0.0000000000000000
(PID.TID 0000.0001)     Wall clock time:  4.26449775695800781E-002
(PID.TID 0000.0001)          No. starts:          25
(PID.TID 0000.0001)           No. stops:          25
(PID.TID 0000.0001)   Seconds in section "DO_THE_MODEL_IO     [FORWARD_STEP]":
(PID.TID 0000.0001)           User time:  1.00000000000000089E-002
(PID.TID 0000.0001)         System time:   0.0000000000000000
(PID.TID 0000.0001)     Wall clock time:  2.30307579040527344E-002
(PID.TID 0000.0001)          No. starts:          25
(PID.TID 0000.0001)           No. stops:          25
(PID.TID 0000.0001)   Seconds in section "DO_WRITE_PICKUP     [FORWARD_STEP]":
(PID.TID 0000.0001)           User time:   0.0000000000000000
(PID.TID 0000.0001)         System time:   0.0000000000000000
(PID.TID 0000.0001)     Wall clock time:  1.39212608337402344E-003
(PID.TID 0000.0001)          No. starts:          25
(PID.TID 0000.0001)           No. stops:          25
(PID.TID 0000.0001) // ======================================================
(PID.TID 0000.0001) // Tile <-> Tile communication statistics
(PID.TID 0000.0001) // ======================================================
(PID.TID 0000.0001) // o Tile number: 000001
(PID.TID 0000.0001) //         No. X exchanges =              0
(PID.TID 0000.0001) //            Max. X spins =              0
(PID.TID 0000.0001) //            Min. X spins =     1000000000
(PID.TID 0000.0001) //          Total. X spins =              0
(PID.TID 0000.0001) //            Avg. X spins =       0.00E+00
(PID.TID 0000.0001) //         No. Y exchanges =              0
(PID.TID 0000.0001) //            Max. Y spins =              0
(PID.TID 0000.0001) //            Min. Y spins =     1000000000
(PID.TID 0000.0001) //          Total. Y spins =              0
(PID.TID 0000.0001) //            Avg. Y spins =       0.00E+00
(PID.TID 0000.0001) // o Tile number: 000002
(PID.TID 0000.0001) //         No. X exchanges =              0
(PID.TID 0000.0001) //            Max. X spins =              0
(PID.TID 0000.0001) //            Min. X spins =     1000000000
(PID.TID 0000.0001) //          Total. X spins =              0
(PID.TID 0000.0001) //            Avg. X spins =       0.00E+00
(PID.TID 0000.0001) //         No. Y exchanges =              0
(PID.TID 0000.0001) //            Max. Y spins =              0
(PID.TID 0000.0001) //            Min. Y spins =     1000000000
(PID.TID 0000.0001) //          Total. Y spins =              0
(PID.TID 0000.0001) //            Avg. Y spins =       0.00E+00
(PID.TID 0000.0001) // o Thread number: 000001
(PID.TID 0000.0001) //            No. barriers =          18814
(PID.TID 0000.0001) //      Max. barrier spins =              1
(PID.TID 0000.0001) //      Min. barrier spins =              1
(PID.TID 0000.0001) //     Total barrier spins =          18814
(PID.TID 0000.0001) //      Avg. barrier spins =       1.00E+00
PROGRAM MAIN: Execution ended Normally
