(PID.TID 0000.0001) 
(PID.TID 0000.0001) // ======================================================
(PID.TID 0000.0001) //                      MITgcm UV
(PID.TID 0000.0001) //                      =========
(PID.TID 0000.0001) // ======================================================
(PID.TID 0000.0001) // execution environment starting up...
(PID.TID 0000.0001) // Run starting Wed Apr  1 14:19:48 1998
(PID.TID 0000.0001) // on melville.lcs.mit.edu
(PID.TID 0000.0001) // account cnh
(PID.TID 0000.0001) // MITgcm UV Release: $Name:  $
(PID.TID 0000.0001) 
(PID.TID 0000.0001) // =======================================================
(PID.TID 0000.0001) // Execution Environment parameter file "eedata"
(PID.TID 0000.0001) // =======================================================
(PID.TID 0000.0001) ># Example "eedata" file
(PID.TID 0000.0001) ># Lines beginning "#" are comments
(PID.TID 0000.0001) ># nTx - No. threads per process in X
(PID.TID 0000.0001) ># nTy - No. threads per process in Y
(PID.TID 0000.0001) > &EEPARMS
(PID.TID 0000.0001) > nTx=1,nTy=1
(PID.TID 0000.0001) > &
(PID.TID 0000.0001) ># Note: Some systems use & as the
(PID.TID 0000.0001) ># namelist terminator. Other systems
(PID.TID 0000.0001) ># use a / character (as shown here).
(PID.TID 0000.0001) 
(PID.TID 0000.0001) // =======================================================
(PID.TID 0000.0001) // Computational Grid Specification ( see files "SIZE.h" )
(PID.TID 0000.0001) //                                  ( and "eedata"       )
(PID.TID 0000.0001) // =======================================================
(PID.TID 0000.0001)      nPx =    1 ; /* No. processes in X */
(PID.TID 0000.0001)      nPy =    1 ; /* No. processes in Y */
(PID.TID 0000.0001)      nSx =    1 ; /* No. tiles in X per process */
(PID.TID 0000.0001)      nSy =    1 ; /* No. tiles in Y per process */
(PID.TID 0000.0001)      sNx =    1 ; /* Tile size in X */
(PID.TID 0000.0001)      sNy =   32 ; /* Tile size in Y */
(PID.TID 0000.0001)      OLx =    3 ; /* Tile overlap distance in X */
(PID.TID 0000.0001)      OLy =    3 ; /* Tile overlap distance in Y */
(PID.TID 0000.0001)      nTx =    1 ; /* No. threads in X per process */
(PID.TID 0000.0001)      nTy =    1 ; /* No. threads in Y per process */
(PID.TID 0000.0001)       Nr =   15 ; /* No. levels in the vertical   */
(PID.TID 0000.0001)       nX =    1 ; /* Total domain size in X ( = nPx*nSx*sNx ) */
(PID.TID 0000.0001)       nY =   32 ; /* Total domain size in Y ( = nPy*nSy*sNy ) */
(PID.TID 0000.0001)   nTiles =    1 ; /* Total no. tiles per process ( = nSx*nSy ) */
(PID.TID 0000.0001)   nProcs =    1 ; /* Total no. processes ( = nPx*nPy ) */
(PID.TID 0000.0001) nThreads =    1 ; /* Total no. threads per process ( = nTx*nTy ) */
(PID.TID 0000.0001) usingMPI =    F ; /* Flag used to control whether MPI is in use */
(PID.TID 0000.0001)                   /*  note: To execute a program with MPI calls */
(PID.TID 0000.0001)                   /*  it must be launched appropriately e.g     */
(PID.TID 0000.0001)                   /*  "mpirun -np 64 ......"                    */
(PID.TID 0000.0001) 
(PID.TID 0000.0001) // ======================================================
(PID.TID 0000.0001) // Mapping of tiles to threads
(PID.TID 0000.0001) // ======================================================
(PID.TID 0000.0001) // -o- Thread   1, tiles (   1:   1,   1:   1)
(PID.TID 0000.0001) 
(PID.TID 0000.0001) // ======================================================
(PID.TID 0000.0001) // Tile <-> Tile connectvity table
(PID.TID 0000.0001) // ======================================================
(PID.TID 0000.0001) // Tile number: 000001 (process no. = 000001)
(PID.TID 0000.0001) //        WEST: Tile = 000001, Process = 000001, Comm = put
(PID.TID 0000.0001) //                bi = 000001, bj = 000001
(PID.TID 0000.0001) //        EAST: Tile = 000001, Process = 000001, Comm = put
(PID.TID 0000.0001) //                bi = 000001, bj = 000001
(PID.TID 0000.0001) //       SOUTH: Tile = 000001, Process = 000001, Comm = put
(PID.TID 0000.0001) //                bi = 000001, bj = 000001
(PID.TID 0000.0001) //       NORTH: Tile = 000001, Process = 000001, Comm = put
(PID.TID 0000.0001) //                bi = 000001, bj = 000001
(PID.TID 0000.0001) 
(PID.TID 0000.0001) // =======================================================
(PID.TID 0000.0001) // Model parameter file "data"
(PID.TID 0000.0001) // =======================================================
(PID.TID 0000.0001) ># ====================
(PID.TID 0000.0001) ># | Model parameters |
(PID.TID 0000.0001) ># ====================
(PID.TID 0000.0001) >#
(PID.TID 0000.0001) ># Continuous equation parameters
(PID.TID 0000.0001) > &PARM01
(PID.TID 0000.0001) > viscAz=1.E-3,
(PID.TID 0000.0001) > viscA4=1.E11,
(PID.TID 0000.0001) > no_slip_sides=.FALSE.,
(PID.TID 0000.0001) > no_slip_bottom=.FALSE.,
(PID.TID 0000.0001) > diffKzT=3.E-5,
(PID.TID 0000.0001) > diffKzS=3.E-5,
(PID.TID 0000.0001) > beta=0.E-11,
(PID.TID 0000.0001) > f0=1.e-4,
(PID.TID 0000.0001) > tAlpha=2.E-4,
(PID.TID 0000.0001) > sBeta =0.E-4,
(PID.TID 0000.0001) > gravity=9.81,
(PID.TID 0000.0001) > rhoConst=1000.,
(PID.TID 0000.0001) > rhoNil=1000.,
(PID.TID 0000.0001) > rigidLid=.FALSE.,
(PID.TID 0000.0001) > implicitFreeSurface=.TRUE.,
(PID.TID 0000.0001) > eosType='LINEAR',
(PID.TID 0000.0001) > diffKhT=0.E3,
(PID.TID 0000.0001) > diffKhS=0.E3,
(PID.TID 0000.0001) > readBinaryPrec=64,
(PID.TID 0000.0001) > writeBinaryPrec=64,
(PID.TID 0000.0001) > implicitDiffusion=.TRUE.,
(PID.TID 0000.0001) > &
(PID.TID 0000.0001) >
(PID.TID 0000.0001) ># Elliptic solver parameters
(PID.TID 0000.0001) > &PARM02
(PID.TID 0000.0001) > cg2dMaxIters=1000,
(PID.TID 0000.0001) > cg2dTargetResidual=1.E-13,
(PID.TID 0000.0001) > &
(PID.TID 0000.0001) >
(PID.TID 0000.0001) ># Time stepping parameters
(PID.TID 0000.0001) > &PARM03
(PID.TID 0000.0001) > startTime=0,
(PID.TID 0000.0001) > nTimeSteps=20,
(PID.TID 0000.0001) > deltaT=1800.0,
(PID.TID 0000.0001) > cAdjFreq=-1.,
(PID.TID 0000.0001) > abEps=0.1,
(PID.TID 0000.0001) > pChkptFreq=0.0,
(PID.TID 0000.0001) > chkptFreq=0.0,
(PID.TID 0000.0001) > dumpFreq=8640000.0,
(PID.TID 0000.0001) > monitorFreq=1.,
(PID.TID 0000.0001) > &
(PID.TID 0000.0001) >
(PID.TID 0000.0001) ># Gridding parameters
(PID.TID 0000.0001) > &PARM04
(PID.TID 0000.0001) > usingCartesianGrid=.TRUE.,
(PID.TID 0000.0001) > usingSphericalPolarGrid=.FALSE.,
(PID.TID 0000.0001) > delZ= 50., 50., 55., 60., 65., 70., 80., 95.,
(PID.TID 0000.0001) >       120., 155., 200., 260., 320., 400., 480.,
(PID.TID 0000.0001) > delX=1*10.E3,
(PID.TID 0000.0001) >#delY=32*10.E3,
(PID.TID 0000.0001) > delYfile='dy.bin',
(PID.TID 0000.0001) > &
(PID.TID 0000.0001) >
(PID.TID 0000.0001) ># Input datasets
(PID.TID 0000.0001) > &PARM05
(PID.TID 0000.0001) > hydrogThetaFile='theta.bin',
(PID.TID 0000.0001) > hydrogSaltFile='salt.bin',
(PID.TID 0000.0001) > bathyFile='topog.bin',
(PID.TID 0000.0001) > &
(PID.TID 0000.0001) 
(PID.TID 0000.0001) %MON XC_max                       =   5.0000000000000E+03
(PID.TID 0000.0001) %MON XC_min                       =   5.0000000000000E+03
(PID.TID 0000.0001) %MON XC_mean                      =   5.0000000000000E+03
(PID.TID 0000.0001) %MON XC_sd                        =   0.0000000000000E+00
(PID.TID 0000.0001) %MON XG_max                       =   0.0000000000000E+00
(PID.TID 0000.0001) %MON XG_min                       =   0.0000000000000E+00
(PID.TID 0000.0001) %MON XG_mean                      =   0.0000000000000E+00
(PID.TID 0000.0001) %MON XG_sd                        =   0.0000000000000E+00
(PID.TID 0000.0001) %MON DXC_max                      =   1.0000000000000E+04
(PID.TID 0000.0001) %MON DXC_min                      =   1.0000000000000E+04
(PID.TID 0000.0001) %MON DXC_mean                     =   1.0000000000000E+04
(PID.TID 0000.0001) %MON DXC_sd                       =   0.0000000000000E+00
(PID.TID 0000.0001) %MON DXF_max                      =   1.0000000000000E+04
(PID.TID 0000.0001) %MON DXF_min                      =   1.0000000000000E+04
(PID.TID 0000.0001) %MON DXF_mean                     =   1.0000000000000E+04
(PID.TID 0000.0001) %MON DXF_sd                       =   0.0000000000000E+00
(PID.TID 0000.0001) %MON DXG_max                      =   1.0000000000000E+04
(PID.TID 0000.0001) %MON DXG_min                      =   1.0000000000000E+04
(PID.TID 0000.0001) %MON DXG_mean                     =   1.0000000000000E+04
(PID.TID 0000.0001) %MON DXG_sd                       =   0.0000000000000E+00
(PID.TID 0000.0001) %MON DXV_max                      =   1.0000000000000E+04
(PID.TID 0000.0001) %MON DXV_min                      =   1.0000000000000E+04
(PID.TID 0000.0001) %MON DXV_mean                     =   1.0000000000000E+04
(PID.TID 0000.0001) %MON DXV_sd                       =   0.0000000000000E+00
(PID.TID 0000.0001) %MON YC_max                       =   3.1561290774894E+05
(PID.TID 0000.0001) %MON YC_min                       =   5.6092274511694E+03
(PID.TID 0000.0001) %MON YC_mean                      =   1.6001915336715E+05
(PID.TID 0000.0001) %MON YC_sd                        =   8.8599616236208E+04
(PID.TID 0000.0001) %MON YG_max                       =   3.1000000000000E+05
(PID.TID 0000.0001) %MON YG_min                       =  -1.8189894035459E-12
(PID.TID 0000.0001) %MON YG_mean                      =   1.5500000000000E+05
(PID.TID 0000.0001) %MON YG_sd                        =   8.8567978698292E+04
(PID.TID 0000.0001) %MON DYC_max                      =   1.1222135200113E+04
(PID.TID 0000.0001) %MON DYC_min                      =   7.9032603032250E+03
(PID.TID 0000.0001) %MON DYC_mean                     =   1.0038306734309E+04
(PID.TID 0000.0001) %MON DYC_sd                       =   1.1846105766688E+03
(PID.TID 0000.0001) %MON DYF_max                      =   1.1225815497888E+04
(PID.TID 0000.0001) %MON DYF_min                      =   7.8626243792479E+03
(PID.TID 0000.0001) %MON DYF_mean                     =   1.0038306734309E+04
(PID.TID 0000.0001) %MON DYF_sd                       =   1.1918760120598E+03
(PID.TID 0000.0001) %MON DYG_max                      =   1.1225815497888E+04
(PID.TID 0000.0001) %MON DYG_min                      =   7.8626243792479E+03
(PID.TID 0000.0001) %MON DYG_mean                     =   1.0038306734309E+04
(PID.TID 0000.0001) %MON DYG_sd                       =   1.1918760120598E+03
(PID.TID 0000.0001) %MON DYU_max                      =   1.1222135200113E+04
(PID.TID 0000.0001) %MON DYU_min                      =   7.9032603032250E+03
(PID.TID 0000.0001) %MON DYU_mean                     =   1.0038306734309E+04
(PID.TID 0000.0001) %MON DYU_sd                       =   1.1846105766688E+03
(PID.TID 0000.0001) %MON RA_max                       =   1.1225815497888E+08
(PID.TID 0000.0001) %MON RA_min                       =   7.8626243792479E+07
(PID.TID 0000.0001) %MON RA_mean                      =   1.0038306734309E+08
(PID.TID 0000.0001) %MON RA_sd                        =   1.1918760120598E+07
(PID.TID 0000.0001) %MON RAW_max                      =   1.1225815497888E+08
(PID.TID 0000.0001) %MON RAW_min                      =   7.8626243792479E+07
(PID.TID 0000.0001) %MON RAW_mean                     =   1.0038306734309E+08
(PID.TID 0000.0001) %MON RAW_sd                       =   1.1918760120598E+07
(PID.TID 0000.0001) %MON RAS_max                      =   1.1222135200113E+08
(PID.TID 0000.0001) %MON RAS_min                      =   7.9032603032250E+07
(PID.TID 0000.0001) %MON RAS_mean                     =   1.0038306734309E+08
(PID.TID 0000.0001) %MON RAS_sd                       =   1.1846105766688E+07
(PID.TID 0000.0001) %MON RAZ_max                      =   1.1222135200113E+08
(PID.TID 0000.0001) %MON RAZ_min                      =   7.9032603032250E+07
(PID.TID 0000.0001) %MON RAZ_mean                     =   1.0038306734309E+08
(PID.TID 0000.0001) %MON RAZ_sd                       =   1.1846105766688E+07
(PID.TID 0000.0001)  MDSREADFIELD: opening global file: topog.bin
(PID.TID 0000.0001) // =======================================================
(PID.TID 0000.0001) // Field Model R_low (ini_masks_etc) at iteration          1
(PID.TID 0000.0001) // CMIN =         -2.460000000000000E+03
(PID.TID 0000.0001) // CMAX =         -2.460000000000000E+03
(PID.TID 0000.0001) // CINT =          0.000000000000000E+00
(PID.TID 0000.0001) // SYMBOLS (CMIN->CMAX): -abcdefghijklmnopqrstuvwxyz+
(PID.TID 0000.0001) //                  0.0: .
(PID.TID 0000.0001) // RANGE I (Lo:Hi:Step):(  -2:   4:   1)
(PID.TID 0000.0001) // RANGE J (Lo:Hi:Step):(  35:  -2:  -1)
(PID.TID 0000.0001) // RANGE K (Lo:Hi:Step):(   1:   1:   1)
(PID.TID 0000.0001) // =======================================================
(PID.TID 0000.0001) K =   1
(PID.TID 0000.0001) //
(PID.TID 0000.0001) // |--J--|**01234
(PID.TID 0000.0001) //     35 -------
(PID.TID 0000.0001) //     34 -------
(PID.TID 0000.0001) //     33 -------
(PID.TID 0000.0001) //     32 .......
(PID.TID 0000.0001) //     31 -------
(PID.TID 0000.0001) //     30 -------
(PID.TID 0000.0001) //     29 -------
(PID.TID 0000.0001) //     28 -------
(PID.TID 0000.0001) //     27 -------
(PID.TID 0000.0001) //     26 -------
(PID.TID 0000.0001) //     25 -------
(PID.TID 0000.0001) //     24 -------
(PID.TID 0000.0001) //     23 -------
(PID.TID 0000.0001) //     22 -------
(PID.TID 0000.0001) //     21 -------
(PID.TID 0000.0001) //     20 -------
(PID.TID 0000.0001) //     19 -------
(PID.TID 0000.0001) //     18 -------
(PID.TID 0000.0001) //     17 -------
(PID.TID 0000.0001) //     16 -------
(PID.TID 0000.0001) //     15 -------
(PID.TID 0000.0001) //     14 -------
(PID.TID 0000.0001) //     13 -------
(PID.TID 0000.0001) //     12 -------
(PID.TID 0000.0001) //     11 -------
(PID.TID 0000.0001) //     10 -------
(PID.TID 0000.0001) //      9 -------
(PID.TID 0000.0001) //      8 -------
(PID.TID 0000.0001) //      7 -------
(PID.TID 0000.0001) //      6 -------
(PID.TID 0000.0001) //      5 -------
(PID.TID 0000.0001) //      4 -------
(PID.TID 0000.0001) //      3 -------
(PID.TID 0000.0001) //      2 -------
(PID.TID 0000.0001) //      1 -------
(PID.TID 0000.0001) //      0 .......
(PID.TID 0000.0001) //     -1 -------
(PID.TID 0000.0001) //     -2 -------
(PID.TID 0000.0001) // =======================================================
(PID.TID 0000.0001) // END OF FIELD                                          =
(PID.TID 0000.0001) // =======================================================
(PID.TID 0000.0001) 
(PID.TID 0000.0001) // =======================================================
(PID.TID 0000.0001) // Field Model Ro_surf (ini_masks_etc) at iteration          1
(PID.TID 0000.0001) // CMIN =          1.000000000000000E+32
(PID.TID 0000.0001) // CMAX =         -1.000000000000000E+32
(PID.TID 0000.0001) // CINT =          0.000000000000000E+00
(PID.TID 0000.0001) // SYMBOLS (CMIN->CMAX): -abcdefghijklmnopqrstuvwxyz+
(PID.TID 0000.0001) //                  0.0: .
(PID.TID 0000.0001) // RANGE I (Lo:Hi:Step):(  -2:   4:   1)
(PID.TID 0000.0001) // RANGE J (Lo:Hi:Step):(  35:  -2:  -1)
(PID.TID 0000.0001) // RANGE K (Lo:Hi:Step):(   1:   1:   1)
(PID.TID 0000.0001) // =======================================================
(PID.TID 0000.0001) K =   1
(PID.TID 0000.0001) //
(PID.TID 0000.0001) // |--J--|**01234
(PID.TID 0000.0001) //     35 .......
(PID.TID 0000.0001) //     34 .......
(PID.TID 0000.0001) //     33 .......
(PID.TID 0000.0001) //     32 .......
(PID.TID 0000.0001) //     31 .......
(PID.TID 0000.0001) //     30 .......
(PID.TID 0000.0001) //     29 .......
(PID.TID 0000.0001) //     28 .......
(PID.TID 0000.0001) //     27 .......
(PID.TID 0000.0001) //     26 .......
(PID.TID 0000.0001) //     25 .......
(PID.TID 0000.0001) //     24 .......
(PID.TID 0000.0001) //     23 .......
(PID.TID 0000.0001) //     22 .......
(PID.TID 0000.0001) //     21 .......
(PID.TID 0000.0001) //     20 .......
(PID.TID 0000.0001) //     19 .......
(PID.TID 0000.0001) //     18 .......
(PID.TID 0000.0001) //     17 .......
(PID.TID 0000.0001) //     16 .......
(PID.TID 0000.0001) //     15 .......
(PID.TID 0000.0001) //     14 .......
(PID.TID 0000.0001) //     13 .......
(PID.TID 0000.0001) //     12 .......
(PID.TID 0000.0001) //     11 .......
(PID.TID 0000.0001) //     10 .......
(PID.TID 0000.0001) //      9 .......
(PID.TID 0000.0001) //      8 .......
(PID.TID 0000.0001) //      7 .......
(PID.TID 0000.0001) //      6 .......
(PID.TID 0000.0001) //      5 .......
(PID.TID 0000.0001) //      4 .......
(PID.TID 0000.0001) //      3 .......
(PID.TID 0000.0001) //      2 .......
(PID.TID 0000.0001) //      1 .......
(PID.TID 0000.0001) //      0 .......
(PID.TID 0000.0001) //     -1 .......
(PID.TID 0000.0001) //     -2 .......
(PID.TID 0000.0001) // =======================================================
(PID.TID 0000.0001) // END OF FIELD                                          =
(PID.TID 0000.0001) // =======================================================
(PID.TID 0000.0001) 
(PID.TID 0000.0001) // =======================================================
(PID.TID 0000.0001) // Field hFacC at iteration          1
(PID.TID 0000.0001) // CMIN =          1.000000000000000E+00
(PID.TID 0000.0001) // CMAX =          1.000000000000000E+00
(PID.TID 0000.0001) // CINT =          0.000000000000000E+00
(PID.TID 0000.0001) // SYMBOLS (CMIN->CMAX): -abcdefghijklmnopqrstuvwxyz+
(PID.TID 0000.0001) //                  0.0: .
(PID.TID 0000.0001) // RANGE I (Lo:Hi:Step):(  -2:   4:   1)
(PID.TID 0000.0001) // RANGE J (Lo:Hi:Step):(  35:  -2:  -1)
(PID.TID 0000.0001) // RANGE K (Lo:Hi:Step):(   1:   1:   1)
(PID.TID 0000.0001) // =======================================================
(PID.TID 0000.0001) K =   1
(PID.TID 0000.0001) //
(PID.TID 0000.0001) // |--J--|**01234
(PID.TID 0000.0001) //     35 -------
(PID.TID 0000.0001) //     34 -------
(PID.TID 0000.0001) //     33 -------
(PID.TID 0000.0001) //     32 .......
(PID.TID 0000.0001) //     31 -------
(PID.TID 0000.0001) //     30 -------
(PID.TID 0000.0001) //     29 -------
(PID.TID 0000.0001) //     28 -------
(PID.TID 0000.0001) //     27 -------
(PID.TID 0000.0001) //     26 -------
(PID.TID 0000.0001) //     25 -------
(PID.TID 0000.0001) //     24 -------
(PID.TID 0000.0001) //     23 -------
(PID.TID 0000.0001) //     22 -------
(PID.TID 0000.0001) //     21 -------
(PID.TID 0000.0001) //     20 -------
(PID.TID 0000.0001) //     19 -------
(PID.TID 0000.0001) //     18 -------
(PID.TID 0000.0001) //     17 -------
(PID.TID 0000.0001) //     16 -------
(PID.TID 0000.0001) //     15 -------
(PID.TID 0000.0001) //     14 -------
(PID.TID 0000.0001) //     13 -------
(PID.TID 0000.0001) //     12 -------
(PID.TID 0000.0001) //     11 -------
(PID.TID 0000.0001) //     10 -------
(PID.TID 0000.0001) //      9 -------
(PID.TID 0000.0001) //      8 -------
(PID.TID 0000.0001) //      7 -------
(PID.TID 0000.0001) //      6 -------
(PID.TID 0000.0001) //      5 -------
(PID.TID 0000.0001) //      4 -------
(PID.TID 0000.0001) //      3 -------
(PID.TID 0000.0001) //      2 -------
(PID.TID 0000.0001) //      1 -------
(PID.TID 0000.0001) //      0 .......
(PID.TID 0000.0001) //     -1 -------
(PID.TID 0000.0001) //     -2 -------
(PID.TID 0000.0001) // =======================================================
(PID.TID 0000.0001) // END OF FIELD                                          =
(PID.TID 0000.0001) // =======================================================
(PID.TID 0000.0001) 
(PID.TID 0000.0001) // =======================================================
(PID.TID 0000.0001) // Field hFacW at iteration          1
(PID.TID 0000.0001) // CMIN =          1.000000000000000E+00
(PID.TID 0000.0001) // CMAX =          1.000000000000000E+00
(PID.TID 0000.0001) // CINT =          0.000000000000000E+00
(PID.TID 0000.0001) // SYMBOLS (CMIN->CMAX): -abcdefghijklmnopqrstuvwxyz+
(PID.TID 0000.0001) //                  0.0: .
(PID.TID 0000.0001) // RANGE I (Lo:Hi:Step):(  -2:   4:   1)
(PID.TID 0000.0001) // RANGE J (Lo:Hi:Step):(  35:  -2:  -1)
(PID.TID 0000.0001) // RANGE K (Lo:Hi:Step):(   1:   1:   1)
(PID.TID 0000.0001) // =======================================================
(PID.TID 0000.0001) K =   1
(PID.TID 0000.0001) //
(PID.TID 0000.0001) // |--J--|**01234
(PID.TID 0000.0001) //     35 -------
(PID.TID 0000.0001) //     34 -------
(PID.TID 0000.0001) //     33 -------
(PID.TID 0000.0001) //     32 .......
(PID.TID 0000.0001) //     31 -------
(PID.TID 0000.0001) //     30 -------
(PID.TID 0000.0001) //     29 -------
(PID.TID 0000.0001) //     28 -------
(PID.TID 0000.0001) //     27 -------
(PID.TID 0000.0001) //     26 -------
(PID.TID 0000.0001) //     25 -------
(PID.TID 0000.0001) //     24 -------
(PID.TID 0000.0001) //     23 -------
(PID.TID 0000.0001) //     22 -------
(PID.TID 0000.0001) //     21 -------
(PID.TID 0000.0001) //     20 -------
(PID.TID 0000.0001) //     19 -------
(PID.TID 0000.0001) //     18 -------
(PID.TID 0000.0001) //     17 -------
(PID.TID 0000.0001) //     16 -------
(PID.TID 0000.0001) //     15 -------
(PID.TID 0000.0001) //     14 -------
(PID.TID 0000.0001) //     13 -------
(PID.TID 0000.0001) //     12 -------
(PID.TID 0000.0001) //     11 -------
(PID.TID 0000.0001) //     10 -------
(PID.TID 0000.0001) //      9 -------
(PID.TID 0000.0001) //      8 -------
(PID.TID 0000.0001) //      7 -------
(PID.TID 0000.0001) //      6 -------
(PID.TID 0000.0001) //      5 -------
(PID.TID 0000.0001) //      4 -------
(PID.TID 0000.0001) //      3 -------
(PID.TID 0000.0001) //      2 -------
(PID.TID 0000.0001) //      1 -------
(PID.TID 0000.0001) //      0 .......
(PID.TID 0000.0001) //     -1 -------
(PID.TID 0000.0001) //     -2 -------
(PID.TID 0000.0001) // =======================================================
(PID.TID 0000.0001) // END OF FIELD                                          =
(PID.TID 0000.0001) // =======================================================
(PID.TID 0000.0001) 
(PID.TID 0000.0001) // =======================================================
(PID.TID 0000.0001) // Field hFacS at iteration          1
(PID.TID 0000.0001) // CMIN =          1.000000000000000E+00
(PID.TID 0000.0001) // CMAX =          1.000000000000000E+00
(PID.TID 0000.0001) // CINT =          0.000000000000000E+00
(PID.TID 0000.0001) // SYMBOLS (CMIN->CMAX): -abcdefghijklmnopqrstuvwxyz+
(PID.TID 0000.0001) //                  0.0: .
(PID.TID 0000.0001) // RANGE I (Lo:Hi:Step):(  -2:   4:   1)
(PID.TID 0000.0001) // RANGE J (Lo:Hi:Step):(  35:  -2:  -1)
(PID.TID 0000.0001) // RANGE K (Lo:Hi:Step):(   1:   1:   1)
(PID.TID 0000.0001) // =======================================================
(PID.TID 0000.0001) K =   1
(PID.TID 0000.0001) //
(PID.TID 0000.0001) // |--J--|**01234
(PID.TID 0000.0001) //     35 -------
(PID.TID 0000.0001) //     34 -------
(PID.TID 0000.0001) //     33 .......
(PID.TID 0000.0001) //     32 .......
(PID.TID 0000.0001) //     31 -------
(PID.TID 0000.0001) //     30 -------
(PID.TID 0000.0001) //     29 -------
(PID.TID 0000.0001) //     28 -------
(PID.TID 0000.0001) //     27 -------
(PID.TID 0000.0001) //     26 -------
(PID.TID 0000.0001) //     25 -------
(PID.TID 0000.0001) //     24 -------
(PID.TID 0000.0001) //     23 -------
(PID.TID 0000.0001) //     22 -------
(PID.TID 0000.0001) //     21 -------
(PID.TID 0000.0001) //     20 -------
(PID.TID 0000.0001) //     19 -------
(PID.TID 0000.0001) //     18 -------
(PID.TID 0000.0001) //     17 -------
(PID.TID 0000.0001) //     16 -------
(PID.TID 0000.0001) //     15 -------
(PID.TID 0000.0001) //     14 -------
(PID.TID 0000.0001) //     13 -------
(PID.TID 0000.0001) //     12 -------
(PID.TID 0000.0001) //     11 -------
(PID.TID 0000.0001) //     10 -------
(PID.TID 0000.0001) //      9 -------
(PID.TID 0000.0001) //      8 -------
(PID.TID 0000.0001) //      7 -------
(PID.TID 0000.0001) //      6 -------
(PID.TID 0000.0001) //      5 -------
(PID.TID 0000.0001) //      4 -------
(PID.TID 0000.0001) //      3 -------
(PID.TID 0000.0001) //      2 -------
(PID.TID 0000.0001) //      1 .......
(PID.TID 0000.0001) //      0 .......
(PID.TID 0000.0001) //     -1 -------
(PID.TID 0000.0001) //     -2 -------
(PID.TID 0000.0001) // =======================================================
(PID.TID 0000.0001) // END OF FIELD                                          =
(PID.TID 0000.0001) // =======================================================
(PID.TID 0000.0001) 
(PID.TID 0000.0001) %MON fCori_max                    =   1.0000000000000E-04
(PID.TID 0000.0001) %MON fCori_min                    =   1.0000000000000E-04
(PID.TID 0000.0001) %MON fCori_mean                   =   1.0000000000000E-04
(PID.TID 0000.0001) %MON fCori_sd                     =   5.4210108624275E-20
(PID.TID 0000.0001) %MON fCoriG_max                   =   1.0000000000000E-04
(PID.TID 0000.0001) %MON fCoriG_min                   =   1.0000000000000E-04
(PID.TID 0000.0001) %MON fCoriG_mean                  =   1.0000000000000E-04
(PID.TID 0000.0001) %MON fCoriG_sd                    =   5.4210108624275E-20
(PID.TID 0000.0001)  PACKAGE_INIT: opening data.pkg
(PID.TID 0000.0001)  OPEN_COPY_DATA_FILE: opening file data.pkg
(PID.TID 0000.0001) // =======================================================
(PID.TID 0000.0001) // Parameter file "data.pkg"
(PID.TID 0000.0001) // =======================================================
(PID.TID 0000.0001) ># Packages
(PID.TID 0000.0001) > &PACKAGES
(PID.TID 0000.0001) >  useGMRedi=.TRUE.,
(PID.TID 0000.0001) >  useKPP=.FALSE.,
(PID.TID 0000.0001) > &
(PID.TID 0000.0001) 
(PID.TID 0000.0001)  PACKAGE_INIT: finished reading data.pkg
(PID.TID 0000.0001)  GM_READPARMS: opening data.gmredi
(PID.TID 0000.0001)  OPEN_COPY_DATA_FILE: opening file data.gmredi
(PID.TID 0000.0001) // =======================================================
(PID.TID 0000.0001) // Parameter file "data.gmredi"
(PID.TID 0000.0001) // =======================================================
(PID.TID 0000.0001) ># GM-Redi parameters
(PID.TID 0000.0001) > &GM_PARM01
(PID.TID 0000.0001) > GM_background_K=1000.d0,
(PID.TID 0000.0001) ># GM_taper_scheme=' ',
(PID.TID 0000.0001) > GM_maxSlope=1.000000000000000E-02
(PID.TID 0000.0001) ># GM_Scrit,
(PID.TID 0000.0001) ># GM_Sd
(PID.TID 0000.0001) > &
(PID.TID 0000.0001) >
(PID.TID 0000.0001) 
(PID.TID 0000.0001)  GM_READPARMS: finished reading data.gmredi
(PID.TID 0000.0001) GMREDI_CHECK: #define GMREDI
(PID.TID 0000.0001) // CG2D normalisation factor =          0.3212707440335354309654536E-03
(PID.TID 0000.0001) 
(PID.TID 0000.0001) // =======================================================
(PID.TID 0000.0001) // Model configuration
(PID.TID 0000.0001) // =======================================================
(PID.TID 0000.0001) //
(PID.TID 0000.0001) // "Physical" paramters ( PARM01 in namelist )
(PID.TID 0000.0001) //
(PID.TID 0000.0001) tRef =   /* Reference temperature profile ( oC or oK ) */
(PID.TID 0000.0001)                 2.900000000000000E+01,      /* K =  1 */
(PID.TID 0000.0001)                 2.800000000000000E+01,      /* K =  2 */
(PID.TID 0000.0001)                 2.700000000000000E+01,      /* K =  3 */
(PID.TID 0000.0001)                 2.600000000000000E+01,      /* K =  4 */
(PID.TID 0000.0001)                 2.500000000000000E+01,      /* K =  5 */
(PID.TID 0000.0001)                 2.400000000000000E+01,      /* K =  6 */
(PID.TID 0000.0001)                 2.300000000000000E+01,      /* K =  7 */
(PID.TID 0000.0001)                 2.200000000000000E+01,      /* K =  8 */
(PID.TID 0000.0001)                 2.100000000000000E+01,      /* K =  9 */
(PID.TID 0000.0001)                 2.000000000000000E+01,      /* K = 10 */
(PID.TID 0000.0001)                 1.900000000000000E+01,      /* K = 11 */
(PID.TID 0000.0001)                 1.800000000000000E+01,      /* K = 12 */
(PID.TID 0000.0001)                 1.700000000000000E+01,      /* K = 13 */
(PID.TID 0000.0001)                 1.600000000000000E+01,      /* K = 14 */
(PID.TID 0000.0001)                 1.500000000000000E+01       /* K = 15 */
(PID.TID 0000.0001)     ;
(PID.TID 0000.0001) sRef =   /* Reference salinity profile ( ppt ) */
(PID.TID 0000.0001)    15 @  0.000000000000000E+00              /* K =  1: 15 */
(PID.TID 0000.0001)     ;
(PID.TID 0000.0001) viscAh =   /* Lateral eddy viscosity ( m^2/s ) */
(PID.TID 0000.0001)                 0.000000000000000E+00
(PID.TID 0000.0001)     ;
(PID.TID 0000.0001) viscAh =   /* Lateral biharmonic viscosity ( m^4/s ) */
(PID.TID 0000.0001)                 1.000000000000000E+11
(PID.TID 0000.0001)     ;
(PID.TID 0000.0001) no_slip_sides =  /* Viscous BCs: No-slip sides */
(PID.TID 0000.0001)                   F
(PID.TID 0000.0001)     ;
(PID.TID 0000.0001) viscAz =   /* Vertical eddy viscosity ( m^2/s ) */
(PID.TID 0000.0001)                 1.000000000000000E-03
(PID.TID 0000.0001)     ;
(PID.TID 0000.0001) viscAr =   /* Vertical eddy viscosity ( units of r^2/s ) */
(PID.TID 0000.0001)                 1.000000000000000E-03
(PID.TID 0000.0001)     ;
(PID.TID 0000.0001) diffKhT =   /* Laplacian diffusion of heat laterally ( m^2/s ) */
(PID.TID 0000.0001)                 0.000000000000000E+00
(PID.TID 0000.0001)     ;
(PID.TID 0000.0001) diffK4T =   /* Bihaarmonic diffusion of heat laterally ( m^4/s ) */
(PID.TID 0000.0001)                 0.000000000000000E+00
(PID.TID 0000.0001)     ;
(PID.TID 0000.0001) diffKzT =   /* Laplacian diffusion of heat vertically ( m^2/s ) */
(PID.TID 0000.0001)                 3.000000000000000E-05
(PID.TID 0000.0001)     ;
(PID.TID 0000.0001) diffKrT =   /* Laplacian diffusion of heat vertically ( m^2/s ) */
(PID.TID 0000.0001)                 3.000000000000000E-05
(PID.TID 0000.0001)     ;
(PID.TID 0000.0001) diffKhS =   /* Laplacian diffusion of salt laterally ( m^2/s ) */
(PID.TID 0000.0001)                 0.000000000000000E+00
(PID.TID 0000.0001)     ;
(PID.TID 0000.0001) diffK4S =   /* Bihaarmonic diffusion of salt laterally ( m^4/s ) */
(PID.TID 0000.0001)                 0.000000000000000E+00
(PID.TID 0000.0001)     ;
(PID.TID 0000.0001) diffKzS =   /* Laplacian diffusion of salt vertically ( m^2/s ) */
(PID.TID 0000.0001)                 3.000000000000000E-05
(PID.TID 0000.0001)     ;
(PID.TID 0000.0001) diffKrS =   /* Laplacian diffusion of salt vertically ( m^2/s ) */
(PID.TID 0000.0001)                 3.000000000000000E-05
(PID.TID 0000.0001)     ;
(PID.TID 0000.0001) tAlpha =   /* Linear EOS thermal expansion coefficient ( 1/degree ) */
(PID.TID 0000.0001)                 2.000000000000000E-04
(PID.TID 0000.0001)     ;
(PID.TID 0000.0001) sBeta =   /* Linear EOS haline contraction coefficient ( 1/ppt ) */
(PID.TID 0000.0001)                 0.000000000000000E+00
(PID.TID 0000.0001)     ;
(PID.TID 0000.0001) rhonil =   /* Reference density ( kg/m^3 ) */
(PID.TID 0000.0001)                 1.000000000000000E+03
(PID.TID 0000.0001)     ;
(PID.TID 0000.0001) rhoConst =   /* Reference density ( kg/m^3 ) */
(PID.TID 0000.0001)                 1.000000000000000E+03
(PID.TID 0000.0001)     ;
(PID.TID 0000.0001) gravity =   /* Gravitational acceleration ( m/s^2 ) */
(PID.TID 0000.0001)                 9.810000000000000E+00
(PID.TID 0000.0001)     ;
(PID.TID 0000.0001) gBaro =   /* Barotropic gravity ( m/s^2 ) */
(PID.TID 0000.0001)                 9.810000000000000E+00
(PID.TID 0000.0001)     ;
(PID.TID 0000.0001) f0 =   /* Reference coriolis parameter ( 1/s ) */
(PID.TID 0000.0001)                 1.000000000000000E-04
(PID.TID 0000.0001)     ;
(PID.TID 0000.0001) beta =   /* Beta ( 1/(m.s) ) */
(PID.TID 0000.0001)                 0.000000000000000E+00
(PID.TID 0000.0001)     ;
(PID.TID 0000.0001) freeSurfFac =   /* Implicit free surface factor */
(PID.TID 0000.0001)                 1.000000000000000E+00
(PID.TID 0000.0001)     ;
(PID.TID 0000.0001) implicitFreeSurface =   /* Implicit free surface on/off flag */
(PID.TID 0000.0001)                   T
(PID.TID 0000.0001)     ;
(PID.TID 0000.0001) rigidLid =   /* Rigid lid on/off flag */
(PID.TID 0000.0001)                   F
(PID.TID 0000.0001)     ;
(PID.TID 0000.0001) implicSurfPress =   /* Surface Pressure implicit factor (0-1)*/
(PID.TID 0000.0001)                 1.000000000000000E+00
(PID.TID 0000.0001)     ;
(PID.TID 0000.0001) implicDiv2Dflow =   /* Barot. Flow Div. implicit factor (0-1)*/
(PID.TID 0000.0001)                 1.000000000000000E+00
(PID.TID 0000.0001)     ;
(PID.TID 0000.0001) staggerTimeStep =   /* Stagger time stepping on/off flag */
(PID.TID 0000.0001)                   F
(PID.TID 0000.0001)     ;
(PID.TID 0000.0001) momStepping =  /* Momentum equation on/off flag */
(PID.TID 0000.0001)                   T
(PID.TID 0000.0001)     ;
(PID.TID 0000.0001) momAdvection =  /* Momentum advection on/off flag */
(PID.TID 0000.0001)                   T
(PID.TID 0000.0001)     ;
(PID.TID 0000.0001) momViscosity =  /* Momentum viscosity on/off flag */
(PID.TID 0000.0001)                   T
(PID.TID 0000.0001)     ;
(PID.TID 0000.0001) useCoriolis =  /* Coriolis on/off flag */
(PID.TID 0000.0001)                   T
(PID.TID 0000.0001)     ;
(PID.TID 0000.0001) momForcing =  /* Momentum forcing on/off flag */
(PID.TID 0000.0001)                   T
(PID.TID 0000.0001)     ;
(PID.TID 0000.0001) momPressureForcing =  /* Momentum pressure term on/off flag */
(PID.TID 0000.0001)                   T
(PID.TID 0000.0001)     ;
(PID.TID 0000.0001) tempStepping =  /* Temperature equation on/off flag */
(PID.TID 0000.0001)                   T
(PID.TID 0000.0001)     ;
(PID.TID 0000.0001) nonHydrostatic =  /* Non-Hydrostatic on/off flag */
(PID.TID 0000.0001)                   F
(PID.TID 0000.0001)     ;
(PID.TID 0000.0001) //
(PID.TID 0000.0001) // Elliptic solver(s) paramters ( PARM02 in namelist )
(PID.TID 0000.0001) //
(PID.TID 0000.0001) cg2dMaxIters =   /* Upper limit on 2d con. grad iterations  */
(PID.TID 0000.0001)                    1000
(PID.TID 0000.0001)     ;
(PID.TID 0000.0001) cg2dChkResFreq =   /* 2d con. grad convergence test frequency */
(PID.TID 0000.0001)                       1
(PID.TID 0000.0001)     ;
(PID.TID 0000.0001) cg2dTargetResidual =   /* 2d con. grad target residual  */
(PID.TID 0000.0001)                 1.000000000000000E-13
(PID.TID 0000.0001)     ;
(PID.TID 0000.0001) //
(PID.TID 0000.0001) // Time stepping paramters ( PARM03 in namelist )
(PID.TID 0000.0001) //
(PID.TID 0000.0001) nIter0 =   /* Base timestep number  */
(PID.TID 0000.0001)                       0
(PID.TID 0000.0001)     ;
(PID.TID 0000.0001) nTimeSteps =   /* Number of timesteps */
(PID.TID 0000.0001)                      20
(PID.TID 0000.0001)     ;
(PID.TID 0000.0001) deltatTmom =   /* Momentum equation timestep ( s ) */
(PID.TID 0000.0001)                 1.800000000000000E+03
(PID.TID 0000.0001)     ;
(PID.TID 0000.0001) deltatTtracer =   /* Tracer equation timestep ( s ) */
(PID.TID 0000.0001)                 1.800000000000000E+03
(PID.TID 0000.0001)     ;
(PID.TID 0000.0001) deltatTClock  =   /* Model clock timestep ( s ) */
(PID.TID 0000.0001)                 1.800000000000000E+03
(PID.TID 0000.0001)     ;
(PID.TID 0000.0001) cAdjFreq =   /* Convective adjustment interval ( s ) */
(PID.TID 0000.0001)                 1.800000000000000E+03
(PID.TID 0000.0001)     ;
(PID.TID 0000.0001) abeps =   /* Adams-Bashforth stabilizing weight */
(PID.TID 0000.0001)                 1.000000000000000E-01
(PID.TID 0000.0001)     ;
(PID.TID 0000.0001) tauCD =   /* CD coupling time-scale ( s ) */
(PID.TID 0000.0001)                 1.800000000000000E+03
(PID.TID 0000.0001)     ;
(PID.TID 0000.0001) rCD =   /* Normalised CD coupling parameter */
(PID.TID 0000.0001)                 0.000000000000000E+00
(PID.TID 0000.0001)     ;
(PID.TID 0000.0001) startTime =   /* Run start time ( s ). */
(PID.TID 0000.0001)                 0.000000000000000E+00
(PID.TID 0000.0001)     ;
(PID.TID 0000.0001) endTime =   /* Integration ending time ( s ). */
(PID.TID 0000.0001)                 3.600000000000000E+04
(PID.TID 0000.0001)     ;
(PID.TID 0000.0001) pChkPtFreq =   /* Permanent restart/checkpoint file interval ( s ). */
(PID.TID 0000.0001)                 0.000000000000000E+00
(PID.TID 0000.0001)     ;
(PID.TID 0000.0001) chkPtFreq =   /* Rolling restart/checkpoint file interval ( s ). */
(PID.TID 0000.0001)                 0.000000000000000E+00
(PID.TID 0000.0001)     ;
(PID.TID 0000.0001) dumpFreq =   /* Model state write out interval ( s ). */
(PID.TID 0000.0001)                 8.640000000000000E+06
(PID.TID 0000.0001)     ;
(PID.TID 0000.0001) //
(PID.TID 0000.0001) // Gridding paramters ( PARM04 in namelist )
(PID.TID 0000.0001) //
(PID.TID 0000.0001) usingCartesianGrid =   /* Cartesian coordinates flag ( True / False ) */
(PID.TID 0000.0001)                   T
(PID.TID 0000.0001)     ;
(PID.TID 0000.0001) usingSphericalPolarGrid =   /* Spherical coordinates flag ( True / False ) */
(PID.TID 0000.0001)                   F
(PID.TID 0000.0001)     ;
(PID.TID 0000.0001) groundAtK1 =   /* Lower Boundary (ground) at the surface(k=1) ( T / F ) */
(PID.TID 0000.0001)                   F
(PID.TID 0000.0001)     ;
(PID.TID 0000.0001) Ro_SeaLevel =   /* r(1) ( units of r ) */
(PID.TID 0000.0001)                 0.000000000000000E+00
(PID.TID 0000.0001)     ;
(PID.TID 0000.0001) rkFac =   /* minus Vertical index orientation  */
(PID.TID 0000.0001)                 1.000000000000000E+00
(PID.TID 0000.0001)     ;
(PID.TID 0000.0001) horiVertRatio =   /* Ratio on units : Horiz - Vertical */
(PID.TID 0000.0001)                 1.000000000000000E+00
(PID.TID 0000.0001)     ;
(PID.TID 0000.0001) delZ =   /* W spacing ( m ) */
(PID.TID 0000.0001)     2 @  5.000000000000000E+01,             /* K =  1:  2 */
(PID.TID 0000.0001)                 5.500000000000000E+01,      /* K =  3 */
(PID.TID 0000.0001)                 6.000000000000000E+01,      /* K =  4 */
(PID.TID 0000.0001)                 6.500000000000000E+01,      /* K =  5 */
(PID.TID 0000.0001)                 7.000000000000000E+01,      /* K =  6 */
(PID.TID 0000.0001)                 8.000000000000000E+01,      /* K =  7 */
(PID.TID 0000.0001)                 9.500000000000000E+01,      /* K =  8 */
(PID.TID 0000.0001)                 1.200000000000000E+02,      /* K =  9 */
(PID.TID 0000.0001)                 1.550000000000000E+02,      /* K = 10 */
(PID.TID 0000.0001)                 2.000000000000000E+02,      /* K = 11 */
(PID.TID 0000.0001)                 2.600000000000000E+02,      /* K = 12 */
(PID.TID 0000.0001)                 3.200000000000000E+02,      /* K = 13 */
(PID.TID 0000.0001)                 4.000000000000000E+02,      /* K = 14 */
(PID.TID 0000.0001)                 4.800000000000000E+02       /* K = 15 */
(PID.TID 0000.0001)     ;
(PID.TID 0000.0001) delP =   /* W spacing ( Pa ) */
(PID.TID 0000.0001)    15 @  1.234567000000000E+05              /* K =  1: 15 */
(PID.TID 0000.0001)     ;
(PID.TID 0000.0001) delR =   /* W spacing ( units of r ) */
(PID.TID 0000.0001)     2 @  5.000000000000000E+01,             /* K =  1:  2 */
(PID.TID 0000.0001)                 5.500000000000000E+01,      /* K =  3 */
(PID.TID 0000.0001)                 6.000000000000000E+01,      /* K =  4 */
(PID.TID 0000.0001)                 6.500000000000000E+01,      /* K =  5 */
(PID.TID 0000.0001)                 7.000000000000000E+01,      /* K =  6 */
(PID.TID 0000.0001)                 8.000000000000000E+01,      /* K =  7 */
(PID.TID 0000.0001)                 9.500000000000000E+01,      /* K =  8 */
(PID.TID 0000.0001)                 1.200000000000000E+02,      /* K =  9 */
(PID.TID 0000.0001)                 1.550000000000000E+02,      /* K = 10 */
(PID.TID 0000.0001)                 2.000000000000000E+02,      /* K = 11 */
(PID.TID 0000.0001)                 2.600000000000000E+02,      /* K = 12 */
(PID.TID 0000.0001)                 3.200000000000000E+02,      /* K = 13 */
(PID.TID 0000.0001)                 4.000000000000000E+02,      /* K = 14 */
(PID.TID 0000.0001)                 4.800000000000000E+02       /* K = 15 */
(PID.TID 0000.0001)     ;
(PID.TID 0000.0001) delX =   /* U spacing ( m - cartesian, degrees - spherical ) */
(PID.TID 0000.0001)                 1.000000000000000E+04       /* I =  1 */
(PID.TID 0000.0001)     ;
(PID.TID 0000.0001) delY =   /* V spacing ( m - cartesian, degrees - spherical ) */
(PID.TID 0000.0001)                 1.121845490233872E+04,      /* J =  1 */
(PID.TID 0000.0001)                 1.120417408127598E+04,      /* J =  2 */
(PID.TID 0000.0001)                 1.117790763965009E+04,      /* J =  3 */
(PID.TID 0000.0001)                 1.113214211541110E+04,      /* J =  4 */
(PID.TID 0000.0001)                 1.105667354210767E+04,      /* J =  5 */
(PID.TID 0000.0001)                 1.093902768829823E+04,      /* J =  6 */
(PID.TID 0000.0001)                 1.076592279809904E+04,      /* J =  7 */
(PID.TID 0000.0001)                 1.052599385487605E+04,      /* J =  8 */
(PID.TID 0000.0001)                 1.021361421186628E+04,      /* J =  9 */
(PID.TID 0000.0001)                 9.833098593630379E+03,      /* J = 10 */
(PID.TID 0000.0001)                 9.402036775610259E+03,      /* J = 11 */
(PID.TID 0000.0001)                 8.952270066930356E+03,      /* J = 12 */
(PID.TID 0000.0001)                 8.527336484962450E+03,      /* J = 13 */
(PID.TID 0000.0001)                 8.176138828117387E+03,      /* J = 14 */
(PID.TID 0000.0001)                 7.943896227202051E+03,      /* J = 15 */
(PID.TID 0000.0001)                 7.862624379247893E+03,      /* J = 16 */
(PID.TID 0000.0001)                 7.943896227202051E+03,      /* J = 17 */
(PID.TID 0000.0001)                 8.176138828117387E+03,      /* J = 18 */
(PID.TID 0000.0001)                 8.527336484962450E+03,      /* J = 19 */
(PID.TID 0000.0001)                 8.952270066930356E+03,      /* J = 20 */
(PID.TID 0000.0001)                 9.402036775610259E+03,      /* J = 21 */
(PID.TID 0000.0001)                 9.833098593630379E+03,      /* J = 22 */
(PID.TID 0000.0001)                 1.021361421186628E+04,      /* J = 23 */
(PID.TID 0000.0001)                 1.052599385487605E+04,      /* J = 24 */
(PID.TID 0000.0001)                 1.076592279809904E+04,      /* J = 25 */
(PID.TID 0000.0001)                 1.093902768829823E+04,      /* J = 26 */
(PID.TID 0000.0001)                 1.105667354210767E+04,      /* J = 27 */
(PID.TID 0000.0001)                 1.113214211541110E+04,      /* J = 28 */
(PID.TID 0000.0001)                 1.117790763965009E+04,      /* J = 29 */
(PID.TID 0000.0001)                 1.120417408127598E+04,      /* J = 30 */
(PID.TID 0000.0001)                 1.121845490233872E+04,      /* J = 31 */
(PID.TID 0000.0001)                 1.122581549788791E+04       /* J = 32 */
(PID.TID 0000.0001)     ;
(PID.TID 0000.0001) phiMin =    /* South edge (ignored - cartesian, degrees - spherical ) */
(PID.TID 0000.0001)                 0.000000000000000E+00
(PID.TID 0000.0001)     ;
(PID.TID 0000.0001) thetaMin =    /* West edge ( ignored - cartesian, degrees - spherical ) */
(PID.TID 0000.0001)                 0.000000000000000E+00
(PID.TID 0000.0001)     ;
(PID.TID 0000.0001) rSphere =    /* Radius ( ignored - cartesian, m - spherical ) */
(PID.TID 0000.0001)                 6.370000000000000E+06
(PID.TID 0000.0001)     ;
(PID.TID 0000.0001) xcoord =   /* P-point X coord ( m - cartesian, degrees - spherical ) */
(PID.TID 0000.0001)                 5.000000000000000E+03       /* I =  1 */
(PID.TID 0000.0001)     ;
(PID.TID 0000.0001) ycoord =   /* P-point Y coord ( m - cartesian, degrees - spherical ) */
(PID.TID 0000.0001)                 5.609227451169357E+03,      /* J =  1 */
(PID.TID 0000.0001)                 1.682054194297670E+04,      /* J =  2 */
(PID.TID 0000.0001)                 2.801158280343973E+04,      /* J =  3 */
(PID.TID 0000.0001)                 3.916660768097033E+04,      /* J =  4 */
(PID.TID 0000.0001)                 5.026101550972971E+04,      /* J =  5 */
(PID.TID 0000.0001)                 6.125886612493267E+04,      /* J =  6 */
(PID.TID 0000.0001)                 7.211134136813131E+04,      /* J =  7 */
(PID.TID 0000.0001)                 8.275729969461885E+04,      /* J =  8 */
(PID.TID 0000.0001)                 9.312710372799002E+04,      /* J =  9 */
(PID.TID 0000.0001)                 1.031504601307384E+05,      /* J = 10 */
(PID.TID 0000.0001)                 1.127680278153587E+05,      /* J = 11 */
(PID.TID 0000.0001)                 1.219451812366290E+05,      /* J = 12 */
(PID.TID 0000.0001)                 1.306849845125754E+05,      /* J = 13 */
(PID.TID 0000.0001)                 1.390367221691153E+05,      /* J = 14 */
(PID.TID 0000.0001)                 1.470967396967750E+05,      /* J = 15 */
(PID.TID 0000.0001)                 1.550000000000000E+05,      /* J = 16 */
(PID.TID 0000.0001)                 1.629032603032250E+05,      /* J = 17 */
(PID.TID 0000.0001)                 1.709632778308847E+05,      /* J = 18 */
(PID.TID 0000.0001)                 1.793150154874247E+05,      /* J = 19 */
(PID.TID 0000.0001)                 1.880548187633711E+05,      /* J = 20 */
(PID.TID 0000.0001)                 1.972319721846414E+05,      /* J = 21 */
(PID.TID 0000.0001)                 2.068495398692617E+05,      /* J = 22 */
(PID.TID 0000.0001)                 2.168728962720101E+05,      /* J = 23 */
(PID.TID 0000.0001)                 2.272427003053812E+05,      /* J = 24 */
(PID.TID 0000.0001)                 2.378886586318688E+05,      /* J = 25 */
(PID.TID 0000.0001)                 2.487411338750674E+05,      /* J = 26 */
(PID.TID 0000.0001)                 2.597389844902704E+05,      /* J = 27 */
(PID.TID 0000.0001)                 2.708333923190298E+05,      /* J = 28 */
(PID.TID 0000.0001)                 2.819884171965604E+05,      /* J = 29 */
(PID.TID 0000.0001)                 2.931794580570235E+05,      /* J = 30 */
(PID.TID 0000.0001)                 3.043907725488308E+05,      /* J = 31 */
(PID.TID 0000.0001)                 3.156129077489441E+05       /* J = 32 */
(PID.TID 0000.0001)     ;
(PID.TID 0000.0001) rcoord =   /* P-point R coordinate (  units of r ) */
(PID.TID 0000.0001)                -2.500000000000000E+01,      /* K =  1 */
(PID.TID 0000.0001)                -7.500000000000000E+01,      /* K =  2 */
(PID.TID 0000.0001)                -1.275000000000000E+02,      /* K =  3 */
(PID.TID 0000.0001)                -1.850000000000000E+02,      /* K =  4 */
(PID.TID 0000.0001)                -2.475000000000000E+02,      /* K =  5 */
(PID.TID 0000.0001)                -3.150000000000000E+02,      /* K =  6 */
(PID.TID 0000.0001)                -3.900000000000000E+02,      /* K =  7 */
(PID.TID 0000.0001)                -4.775000000000000E+02,      /* K =  8 */
(PID.TID 0000.0001)                -5.850000000000000E+02,      /* K =  9 */
(PID.TID 0000.0001)                -7.225000000000000E+02,      /* K = 10 */
(PID.TID 0000.0001)                -9.000000000000000E+02,      /* K = 11 */
(PID.TID 0000.0001)                -1.130000000000000E+03,      /* K = 12 */
(PID.TID 0000.0001)                -1.420000000000000E+03,      /* K = 13 */
(PID.TID 0000.0001)                -1.780000000000000E+03,      /* K = 14 */
(PID.TID 0000.0001)                -2.220000000000000E+03       /* K = 15 */
(PID.TID 0000.0001)     ;
(PID.TID 0000.0001) dxF =  /* dxF(:,1,:,1) ( m - cartesian, degrees - spherical ) */
(PID.TID 0000.0001)                 1.000000000000000E+04       /* I =  1 */
(PID.TID 0000.0001)     ;
(PID.TID 0000.0001) dxF =  /* dxF(1,:,1,:) ( m - cartesian, degrees - spherical ) */
(PID.TID 0000.0001)    32 @  1.000000000000000E+04              /* J =  1: 32 */
(PID.TID 0000.0001)     ;
(PID.TID 0000.0001) dyF =  /* dyF(:,1,:,1) ( m - cartesian, degrees - spherical ) */
(PID.TID 0000.0001)                 1.121845490233872E+04       /* I =  1 */
(PID.TID 0000.0001)     ;
(PID.TID 0000.0001) dyF =  /* dyF(1,:,1,:) ( m - cartesian, degrees - spherical ) */
(PID.TID 0000.0001)                 1.121845490233872E+04,      /* J =  1 */
(PID.TID 0000.0001)                 1.120417408127598E+04,      /* J =  2 */
(PID.TID 0000.0001)                 1.117790763965009E+04,      /* J =  3 */
(PID.TID 0000.0001)                 1.113214211541110E+04,      /* J =  4 */
(PID.TID 0000.0001)                 1.105667354210767E+04,      /* J =  5 */
(PID.TID 0000.0001)                 1.093902768829823E+04,      /* J =  6 */
(PID.TID 0000.0001)                 1.076592279809904E+04,      /* J =  7 */
(PID.TID 0000.0001)                 1.052599385487605E+04,      /* J =  8 */
(PID.TID 0000.0001)                 1.021361421186628E+04,      /* J =  9 */
(PID.TID 0000.0001)                 9.833098593630379E+03,      /* J = 10 */
(PID.TID 0000.0001)                 9.402036775610259E+03,      /* J = 11 */
(PID.TID 0000.0001)                 8.952270066930356E+03,      /* J = 12 */
(PID.TID 0000.0001)                 8.527336484962450E+03,      /* J = 13 */
(PID.TID 0000.0001)                 8.176138828117387E+03,      /* J = 14 */
(PID.TID 0000.0001)                 7.943896227202051E+03,      /* J = 15 */
(PID.TID 0000.0001)                 7.862624379247893E+03,      /* J = 16 */
(PID.TID 0000.0001)                 7.943896227202051E+03,      /* J = 17 */
(PID.TID 0000.0001)                 8.176138828117387E+03,      /* J = 18 */
(PID.TID 0000.0001)                 8.527336484962450E+03,      /* J = 19 */
(PID.TID 0000.0001)                 8.952270066930356E+03,      /* J = 20 */
(PID.TID 0000.0001)                 9.402036775610259E+03,      /* J = 21 */
(PID.TID 0000.0001)                 9.833098593630379E+03,      /* J = 22 */
(PID.TID 0000.0001)                 1.021361421186628E+04,      /* J = 23 */
(PID.TID 0000.0001)                 1.052599385487605E+04,      /* J = 24 */
(PID.TID 0000.0001)                 1.076592279809904E+04,      /* J = 25 */
(PID.TID 0000.0001)                 1.093902768829823E+04,      /* J = 26 */
(PID.TID 0000.0001)                 1.105667354210767E+04,      /* J = 27 */
(PID.TID 0000.0001)                 1.113214211541110E+04,      /* J = 28 */
(PID.TID 0000.0001)                 1.117790763965009E+04,      /* J = 29 */
(PID.TID 0000.0001)                 1.120417408127598E+04,      /* J = 30 */
(PID.TID 0000.0001)                 1.121845490233872E+04,      /* J = 31 */
(PID.TID 0000.0001)                 1.122581549788791E+04       /* J = 32 */
(PID.TID 0000.0001)     ;
(PID.TID 0000.0001) dxG =  /* dxG(:,1,:,1) ( m - cartesian, degrees - spherical ) */
(PID.TID 0000.0001)                 1.000000000000000E+04       /* I =  1 */
(PID.TID 0000.0001)     ;
(PID.TID 0000.0001) dxG =  /* dxG(1,:,1,:) ( m - cartesian, degrees - spherical ) */
(PID.TID 0000.0001)    32 @  1.000000000000000E+04              /* J =  1: 32 */
(PID.TID 0000.0001)     ;
(PID.TID 0000.0001) dyG =  /* dyG(:,1,:,1) ( m - cartesian, degrees - spherical ) */
(PID.TID 0000.0001)                 1.121845490233872E+04       /* I =  1 */
(PID.TID 0000.0001)     ;
(PID.TID 0000.0001) dyG =  /* dyG(1,:,1,:) ( m - cartesian, degrees - spherical ) */
(PID.TID 0000.0001)                 1.121845490233872E+04,      /* J =  1 */
(PID.TID 0000.0001)                 1.120417408127598E+04,      /* J =  2 */
(PID.TID 0000.0001)                 1.117790763965009E+04,      /* J =  3 */
(PID.TID 0000.0001)                 1.113214211541110E+04,      /* J =  4 */
(PID.TID 0000.0001)                 1.105667354210767E+04,      /* J =  5 */
(PID.TID 0000.0001)                 1.093902768829823E+04,      /* J =  6 */
(PID.TID 0000.0001)                 1.076592279809904E+04,      /* J =  7 */
(PID.TID 0000.0001)                 1.052599385487605E+04,      /* J =  8 */
(PID.TID 0000.0001)                 1.021361421186628E+04,      /* J =  9 */
(PID.TID 0000.0001)                 9.833098593630379E+03,      /* J = 10 */
(PID.TID 0000.0001)                 9.402036775610259E+03,      /* J = 11 */
(PID.TID 0000.0001)                 8.952270066930356E+03,      /* J = 12 */
(PID.TID 0000.0001)                 8.527336484962450E+03,      /* J = 13 */
(PID.TID 0000.0001)                 8.176138828117387E+03,      /* J = 14 */
(PID.TID 0000.0001)                 7.943896227202051E+03,      /* J = 15 */
(PID.TID 0000.0001)                 7.862624379247893E+03,      /* J = 16 */
(PID.TID 0000.0001)                 7.943896227202051E+03,      /* J = 17 */
(PID.TID 0000.0001)                 8.176138828117387E+03,      /* J = 18 */
(PID.TID 0000.0001)                 8.527336484962450E+03,      /* J = 19 */
(PID.TID 0000.0001)                 8.952270066930356E+03,      /* J = 20 */
(PID.TID 0000.0001)                 9.402036775610259E+03,      /* J = 21 */
(PID.TID 0000.0001)                 9.833098593630379E+03,      /* J = 22 */
(PID.TID 0000.0001)                 1.021361421186628E+04,      /* J = 23 */
(PID.TID 0000.0001)                 1.052599385487605E+04,      /* J = 24 */
(PID.TID 0000.0001)                 1.076592279809904E+04,      /* J = 25 */
(PID.TID 0000.0001)                 1.093902768829823E+04,      /* J = 26 */
(PID.TID 0000.0001)                 1.105667354210767E+04,      /* J = 27 */
(PID.TID 0000.0001)                 1.113214211541110E+04,      /* J = 28 */
(PID.TID 0000.0001)                 1.117790763965009E+04,      /* J = 29 */
(PID.TID 0000.0001)                 1.120417408127598E+04,      /* J = 30 */
(PID.TID 0000.0001)                 1.121845490233872E+04,      /* J = 31 */
(PID.TID 0000.0001)                 1.122581549788791E+04       /* J = 32 */
(PID.TID 0000.0001)     ;
(PID.TID 0000.0001) dxC =  /* dxC(:,1,:,1) ( m - cartesian, degrees - spherical ) */
(PID.TID 0000.0001)                 1.000000000000000E+04       /* I =  1 */
(PID.TID 0000.0001)     ;
(PID.TID 0000.0001) dxC =  /* dxC(1,:,1,:) ( m - cartesian, degrees - spherical ) */
(PID.TID 0000.0001)    32 @  1.000000000000000E+04              /* J =  1: 32 */
(PID.TID 0000.0001)     ;
(PID.TID 0000.0001) dyC =  /* dyC(:,1,:,1) ( m - cartesian, degrees - spherical ) */
(PID.TID 0000.0001)                 1.122213520011331E+04       /* I =  1 */
(PID.TID 0000.0001)     ;
(PID.TID 0000.0001) dyC =  /* dyC(1,:,1,:) ( m - cartesian, degrees - spherical ) */
(PID.TID 0000.0001)                 1.122213520011331E+04,      /* J =  1 */
(PID.TID 0000.0001)                 1.121131449180735E+04,      /* J =  2 */
(PID.TID 0000.0001)                 1.119104086046303E+04,      /* J =  3 */
(PID.TID 0000.0001)                 1.115502487753059E+04,      /* J =  4 */
(PID.TID 0000.0001)                 1.109440782875938E+04,      /* J =  5 */
(PID.TID 0000.0001)                 1.099785061520295E+04,      /* J =  6 */
(PID.TID 0000.0001)                 1.085247524319864E+04,      /* J =  7 */
(PID.TID 0000.0001)                 1.064595832648755E+04,      /* J =  8 */
(PID.TID 0000.0001)                 1.036980403337117E+04,      /* J =  9 */
(PID.TID 0000.0001)                 1.002335640274833E+04,      /* J = 10 */
(PID.TID 0000.0001)                 9.617567684620319E+03,      /* J = 11 */
(PID.TID 0000.0001)                 9.177153421270308E+03,      /* J = 12 */
(PID.TID 0000.0001)                 8.739803275946404E+03,      /* J = 13 */
(PID.TID 0000.0001)                 8.351737656539919E+03,      /* J = 14 */
(PID.TID 0000.0001)                 8.060017527659718E+03,      /* J = 15 */
(PID.TID 0000.0001)     2 @  7.903260303224972E+03,             /* J = 16: 17 */
(PID.TID 0000.0001)                 8.060017527659718E+03,      /* J = 18 */
(PID.TID 0000.0001)                 8.351737656539919E+03,      /* J = 19 */
(PID.TID 0000.0001)                 8.739803275946404E+03,      /* J = 20 */
(PID.TID 0000.0001)                 9.177153421270308E+03,      /* J = 21 */
(PID.TID 0000.0001)                 9.617567684620319E+03,      /* J = 22 */
(PID.TID 0000.0001)                 1.002335640274833E+04,      /* J = 23 */
(PID.TID 0000.0001)                 1.036980403337117E+04,      /* J = 24 */
(PID.TID 0000.0001)                 1.064595832648755E+04,      /* J = 25 */
(PID.TID 0000.0001)                 1.085247524319864E+04,      /* J = 26 */
(PID.TID 0000.0001)                 1.099785061520295E+04,      /* J = 27 */
(PID.TID 0000.0001)                 1.109440782875938E+04,      /* J = 28 */
(PID.TID 0000.0001)                 1.115502487753059E+04,      /* J = 29 */
(PID.TID 0000.0001)                 1.119104086046303E+04,      /* J = 30 */
(PID.TID 0000.0001)                 1.121131449180735E+04,      /* J = 31 */
(PID.TID 0000.0001)                 1.122213520011331E+04       /* J = 32 */
(PID.TID 0000.0001)     ;
(PID.TID 0000.0001) dxV =  /* dxV(:,1,:,1) ( m - cartesian, degrees - spherical ) */
(PID.TID 0000.0001)                 1.000000000000000E+04       /* I =  1 */
(PID.TID 0000.0001)     ;
(PID.TID 0000.0001) dxV =  /* dxV(1,:,1,:) ( m - cartesian, degrees - spherical ) */
(PID.TID 0000.0001)    32 @  1.000000000000000E+04              /* J =  1: 32 */
(PID.TID 0000.0001)     ;
(PID.TID 0000.0001) dyU =  /* dyU(:,1,:,1) ( m - cartesian, degrees - spherical ) */
(PID.TID 0000.0001)                 1.122213520011331E+04       /* I =  1 */
(PID.TID 0000.0001)     ;
(PID.TID 0000.0001) dyU =  /* dyU(1,:,1,:) ( m - cartesian, degrees - spherical ) */
(PID.TID 0000.0001)                 1.122213520011331E+04,      /* J =  1 */
(PID.TID 0000.0001)                 1.121131449180735E+04,      /* J =  2 */
(PID.TID 0000.0001)                 1.119104086046303E+04,      /* J =  3 */
(PID.TID 0000.0001)                 1.115502487753059E+04,      /* J =  4 */
(PID.TID 0000.0001)                 1.109440782875938E+04,      /* J =  5 */
(PID.TID 0000.0001)                 1.099785061520295E+04,      /* J =  6 */
(PID.TID 0000.0001)                 1.085247524319864E+04,      /* J =  7 */
(PID.TID 0000.0001)                 1.064595832648755E+04,      /* J =  8 */
(PID.TID 0000.0001)                 1.036980403337117E+04,      /* J =  9 */
(PID.TID 0000.0001)                 1.002335640274833E+04,      /* J = 10 */
(PID.TID 0000.0001)                 9.617567684620319E+03,      /* J = 11 */
(PID.TID 0000.0001)                 9.177153421270308E+03,      /* J = 12 */
(PID.TID 0000.0001)                 8.739803275946404E+03,      /* J = 13 */
(PID.TID 0000.0001)                 8.351737656539919E+03,      /* J = 14 */
(PID.TID 0000.0001)                 8.060017527659718E+03,      /* J = 15 */
(PID.TID 0000.0001)     2 @  7.903260303224972E+03,             /* J = 16: 17 */
(PID.TID 0000.0001)                 8.060017527659718E+03,      /* J = 18 */
(PID.TID 0000.0001)                 8.351737656539919E+03,      /* J = 19 */
(PID.TID 0000.0001)                 8.739803275946404E+03,      /* J = 20 */
(PID.TID 0000.0001)                 9.177153421270308E+03,      /* J = 21 */
(PID.TID 0000.0001)                 9.617567684620319E+03,      /* J = 22 */
(PID.TID 0000.0001)                 1.002335640274833E+04,      /* J = 23 */
(PID.TID 0000.0001)                 1.036980403337117E+04,      /* J = 24 */
(PID.TID 0000.0001)                 1.064595832648755E+04,      /* J = 25 */
(PID.TID 0000.0001)                 1.085247524319864E+04,      /* J = 26 */
(PID.TID 0000.0001)                 1.099785061520295E+04,      /* J = 27 */
(PID.TID 0000.0001)                 1.109440782875938E+04,      /* J = 28 */
(PID.TID 0000.0001)                 1.115502487753059E+04,      /* J = 29 */
(PID.TID 0000.0001)                 1.119104086046303E+04,      /* J = 30 */
(PID.TID 0000.0001)                 1.121131449180735E+04,      /* J = 31 */
(PID.TID 0000.0001)                 1.122213520011331E+04       /* J = 32 */
(PID.TID 0000.0001)     ;
(PID.TID 0000.0001) rA =  /* rA(:,1,:,1) ( m - cartesian, degrees - spherical ) */
(PID.TID 0000.0001)                 1.121845490233872E+08       /* I =  1 */
(PID.TID 0000.0001)     ;
(PID.TID 0000.0001) rA =  /* rA(1,:,1,:) ( m - cartesian, degrees - spherical ) */
(PID.TID 0000.0001)                 1.121845490233872E+08,      /* J =  1 */
(PID.TID 0000.0001)                 1.120417408127598E+08,      /* J =  2 */
(PID.TID 0000.0001)                 1.117790763965009E+08,      /* J =  3 */
(PID.TID 0000.0001)                 1.113214211541110E+08,      /* J =  4 */
(PID.TID 0000.0001)                 1.105667354210767E+08,      /* J =  5 */
(PID.TID 0000.0001)                 1.093902768829823E+08,      /* J =  6 */
(PID.TID 0000.0001)                 1.076592279809904E+08,      /* J =  7 */
(PID.TID 0000.0001)                 1.052599385487605E+08,      /* J =  8 */
(PID.TID 0000.0001)                 1.021361421186628E+08,      /* J =  9 */
(PID.TID 0000.0001)                 9.833098593630378E+07,      /* J = 10 */
(PID.TID 0000.0001)                 9.402036775610259E+07,      /* J = 11 */
(PID.TID 0000.0001)                 8.952270066930355E+07,      /* J = 12 */
(PID.TID 0000.0001)                 8.527336484962450E+07,      /* J = 13 */
(PID.TID 0000.0001)                 8.176138828117387E+07,      /* J = 14 */
(PID.TID 0000.0001)                 7.943896227202050E+07,      /* J = 15 */
(PID.TID 0000.0001)                 7.862624379247892E+07,      /* J = 16 */
(PID.TID 0000.0001)                 7.943896227202050E+07,      /* J = 17 */
(PID.TID 0000.0001)                 8.176138828117387E+07,      /* J = 18 */
(PID.TID 0000.0001)                 8.527336484962450E+07,      /* J = 19 */
(PID.TID 0000.0001)                 8.952270066930355E+07,      /* J = 20 */
(PID.TID 0000.0001)                 9.402036775610259E+07,      /* J = 21 */
(PID.TID 0000.0001)                 9.833098593630378E+07,      /* J = 22 */
(PID.TID 0000.0001)                 1.021361421186628E+08,      /* J = 23 */
(PID.TID 0000.0001)                 1.052599385487605E+08,      /* J = 24 */
(PID.TID 0000.0001)                 1.076592279809904E+08,      /* J = 25 */
(PID.TID 0000.0001)                 1.093902768829823E+08,      /* J = 26 */
(PID.TID 0000.0001)                 1.105667354210767E+08,      /* J = 27 */
(PID.TID 0000.0001)                 1.113214211541110E+08,      /* J = 28 */
(PID.TID 0000.0001)                 1.117790763965009E+08,      /* J = 29 */
(PID.TID 0000.0001)                 1.120417408127598E+08,      /* J = 30 */
(PID.TID 0000.0001)                 1.121845490233872E+08,      /* J = 31 */
(PID.TID 0000.0001)                 1.122581549788791E+08       /* J = 32 */
(PID.TID 0000.0001)     ;
(PID.TID 0000.0001) rAw =  /* rAw(:,1,:,1) ( m - cartesian, degrees - spherical ) */
(PID.TID 0000.0001)                 1.121845490233872E+08       /* I =  1 */
(PID.TID 0000.0001)     ;
(PID.TID 0000.0001) rAw =  /* rAw(1,:,1,:) ( m - cartesian, degrees - spherical ) */
(PID.TID 0000.0001)                 1.121845490233872E+08,      /* J =  1 */
(PID.TID 0000.0001)                 1.120417408127598E+08,      /* J =  2 */
(PID.TID 0000.0001)                 1.117790763965009E+08,      /* J =  3 */
(PID.TID 0000.0001)                 1.113214211541110E+08,      /* J =  4 */
(PID.TID 0000.0001)                 1.105667354210767E+08,      /* J =  5 */
(PID.TID 0000.0001)                 1.093902768829823E+08,      /* J =  6 */
(PID.TID 0000.0001)                 1.076592279809904E+08,      /* J =  7 */
(PID.TID 0000.0001)                 1.052599385487605E+08,      /* J =  8 */
(PID.TID 0000.0001)                 1.021361421186628E+08,      /* J =  9 */
(PID.TID 0000.0001)                 9.833098593630378E+07,      /* J = 10 */
(PID.TID 0000.0001)                 9.402036775610259E+07,      /* J = 11 */
(PID.TID 0000.0001)                 8.952270066930355E+07,      /* J = 12 */
(PID.TID 0000.0001)                 8.527336484962450E+07,      /* J = 13 */
(PID.TID 0000.0001)                 8.176138828117387E+07,      /* J = 14 */
(PID.TID 0000.0001)                 7.943896227202050E+07,      /* J = 15 */
(PID.TID 0000.0001)                 7.862624379247892E+07,      /* J = 16 */
(PID.TID 0000.0001)                 7.943896227202050E+07,      /* J = 17 */
(PID.TID 0000.0001)                 8.176138828117387E+07,      /* J = 18 */
(PID.TID 0000.0001)                 8.527336484962450E+07,      /* J = 19 */
(PID.TID 0000.0001)                 8.952270066930355E+07,      /* J = 20 */
(PID.TID 0000.0001)                 9.402036775610259E+07,      /* J = 21 */
(PID.TID 0000.0001)                 9.833098593630378E+07,      /* J = 22 */
(PID.TID 0000.0001)                 1.021361421186628E+08,      /* J = 23 */
(PID.TID 0000.0001)                 1.052599385487605E+08,      /* J = 24 */
(PID.TID 0000.0001)                 1.076592279809904E+08,      /* J = 25 */
(PID.TID 0000.0001)                 1.093902768829823E+08,      /* J = 26 */
(PID.TID 0000.0001)                 1.105667354210767E+08,      /* J = 27 */
(PID.TID 0000.0001)                 1.113214211541110E+08,      /* J = 28 */
(PID.TID 0000.0001)                 1.117790763965009E+08,      /* J = 29 */
(PID.TID 0000.0001)                 1.120417408127598E+08,      /* J = 30 */
(PID.TID 0000.0001)                 1.121845490233872E+08,      /* J = 31 */
(PID.TID 0000.0001)                 1.122581549788791E+08       /* J = 32 */
(PID.TID 0000.0001)     ;
(PID.TID 0000.0001) rAs =  /* rAs(:,1,:,1) ( m - cartesian, degrees - spherical ) */
(PID.TID 0000.0001)                 1.122213520011331E+08       /* I =  1 */
(PID.TID 0000.0001)     ;
(PID.TID 0000.0001) rAs =  /* rAs(1,:,1,:) ( m - cartesian, degrees - spherical ) */
(PID.TID 0000.0001)                 1.122213520011331E+08,      /* J =  1 */
(PID.TID 0000.0001)                 1.121131449180735E+08,      /* J =  2 */
(PID.TID 0000.0001)                 1.119104086046303E+08,      /* J =  3 */
(PID.TID 0000.0001)                 1.115502487753059E+08,      /* J =  4 */
(PID.TID 0000.0001)                 1.109440782875938E+08,      /* J =  5 */
(PID.TID 0000.0001)                 1.099785061520295E+08,      /* J =  6 */
(PID.TID 0000.0001)                 1.085247524319864E+08,      /* J =  7 */
(PID.TID 0000.0001)                 1.064595832648755E+08,      /* J =  8 */
(PID.TID 0000.0001)                 1.036980403337117E+08,      /* J =  9 */
(PID.TID 0000.0001)                 1.002335640274833E+08,      /* J = 10 */
(PID.TID 0000.0001)                 9.617567684620319E+07,      /* J = 11 */
(PID.TID 0000.0001)                 9.177153421270308E+07,      /* J = 12 */
(PID.TID 0000.0001)                 8.739803275946404E+07,      /* J = 13 */
(PID.TID 0000.0001)                 8.351737656539918E+07,      /* J = 14 */
(PID.TID 0000.0001)                 8.060017527659719E+07,      /* J = 15 */
(PID.TID 0000.0001)     2 @  7.903260303224972E+07,             /* J = 16: 17 */
(PID.TID 0000.0001)                 8.060017527659719E+07,      /* J = 18 */
(PID.TID 0000.0001)                 8.351737656539918E+07,      /* J = 19 */
(PID.TID 0000.0001)                 8.739803275946404E+07,      /* J = 20 */
(PID.TID 0000.0001)                 9.177153421270308E+07,      /* J = 21 */
(PID.TID 0000.0001)                 9.617567684620319E+07,      /* J = 22 */
(PID.TID 0000.0001)                 1.002335640274833E+08,      /* J = 23 */
(PID.TID 0000.0001)                 1.036980403337117E+08,      /* J = 24 */
(PID.TID 0000.0001)                 1.064595832648755E+08,      /* J = 25 */
(PID.TID 0000.0001)                 1.085247524319864E+08,      /* J = 26 */
(PID.TID 0000.0001)                 1.099785061520295E+08,      /* J = 27 */
(PID.TID 0000.0001)                 1.109440782875938E+08,      /* J = 28 */
(PID.TID 0000.0001)                 1.115502487753059E+08,      /* J = 29 */
(PID.TID 0000.0001)                 1.119104086046303E+08,      /* J = 30 */
(PID.TID 0000.0001)                 1.121131449180735E+08,      /* J = 31 */
(PID.TID 0000.0001)                 1.122213520011331E+08       /* J = 32 */
(PID.TID 0000.0001)     ;
(PID.TID 0000.0001) 
(PID.TID 0000.0001)  MDSREADFIELD: opening global file: theta.bin
(PID.TID 0000.0001) // =======================================================
(PID.TID 0000.0001) // Field Initial Temperature at iteration          1
(PID.TID 0000.0001) // CMIN =          1.931863052083373E+01
(PID.TID 0000.0001) // CMAX =          2.057943267998176E+01
(PID.TID 0000.0001) // CINT =          4.669637626474178E-02
(PID.TID 0000.0001) // SYMBOLS (CMIN->CMAX): -abcdefghijklmnopqrstuvwxyz+
(PID.TID 0000.0001) //                  0.0: .
(PID.TID 0000.0001) // RANGE I (Lo:Hi:Step):(   1:   1:   1)
(PID.TID 0000.0001) // RANGE J (Lo:Hi:Step):(  32:   1:  -1)
(PID.TID 0000.0001) // RANGE K (Lo:Hi:Step):(   1:   1:   1)
(PID.TID 0000.0001) // =======================================================
(PID.TID 0000.0001) K =   1
(PID.TID 0000.0001) 
(PID.TID 0000.0001) |--J--|1
(PID.TID 0000.0001)     32 .
(PID.TID 0000.0001)     31 -
(PID.TID 0000.0001)     30 -
(PID.TID 0000.0001)     29 a
(PID.TID 0000.0001)     28 a
(PID.TID 0000.0001)     27 b
(PID.TID 0000.0001)     26 c
(PID.TID 0000.0001)     25 c
(PID.TID 0000.0001)     24 d
(PID.TID 0000.0001)     23 f
(PID.TID 0000.0001)     22 g
(PID.TID 0000.0001)     21 h
(PID.TID 0000.0001)     20 i
(PID.TID 0000.0001)     19 j
(PID.TID 0000.0001)     18 k
(PID.TID 0000.0001)     17 l
(PID.TID 0000.0001)     16 n
(PID.TID 0000.0001)     15 o
(PID.TID 0000.0001)     14 p
(PID.TID 0000.0001)     13 q
(PID.TID 0000.0001)     12 r
(PID.TID 0000.0001)     11 s
(PID.TID 0000.0001)     10 t
(PID.TID 0000.0001)      9 u
(PID.TID 0000.0001)      8 w
(PID.TID 0000.0001)      7 x
(PID.TID 0000.0001)      6 x
(PID.TID 0000.0001)      5 y
(PID.TID 0000.0001)      4 z
(PID.TID 0000.0001)      3 z
(PID.TID 0000.0001)      2 +
(PID.TID 0000.0001)      1 +
(PID.TID 0000.0001) // =======================================================
(PID.TID 0000.0001) // END OF FIELD                                          =
(PID.TID 0000.0001) // =======================================================
(PID.TID 0000.0001) 
(PID.TID 0000.0001)  MDSREADFIELD: opening global file: salt.bin
(PID.TID 0000.0001) // =======================================================
(PID.TID 0000.0001) // Field Initial Salinity at iteration          1
(PID.TID 0000.0001) // CMIN =          3.949751277532912E-01
(PID.TID 0000.0001) // CMAX =          1.000000000000000E+00
(PID.TID 0000.0001) // CINT =          2.240832860172995E-02
(PID.TID 0000.0001) // SYMBOLS (CMIN->CMAX): -abcdefghijklmnopqrstuvwxyz+
(PID.TID 0000.0001) //                  0.0: .
(PID.TID 0000.0001) // RANGE I (Lo:Hi:Step):(   1:   1:   1)
(PID.TID 0000.0001) // RANGE J (Lo:Hi:Step):(  32:   1:  -1)
(PID.TID 0000.0001) // RANGE K (Lo:Hi:Step):(   1:   1:   1)
(PID.TID 0000.0001) // =======================================================
(PID.TID 0000.0001) K =   1
(PID.TID 0000.0001) 
(PID.TID 0000.0001) |--J--|1
(PID.TID 0000.0001)     32 .
(PID.TID 0000.0001)     31 -
(PID.TID 0000.0001)     30 c
(PID.TID 0000.0001)     29 e
(PID.TID 0000.0001)     28 h
(PID.TID 0000.0001)     27 k
(PID.TID 0000.0001)     26 m
(PID.TID 0000.0001)     25 p
(PID.TID 0000.0001)     24 r
(PID.TID 0000.0001)     23 t
(PID.TID 0000.0001)     22 v
(PID.TID 0000.0001)     21 x
(PID.TID 0000.0001)     20 y
(PID.TID 0000.0001)     19 z
(PID.TID 0000.0001)     18 +
(PID.TID 0000.0001)     17 +
(PID.TID 0000.0001)     16 +
(PID.TID 0000.0001)     15 +
(PID.TID 0000.0001)     14 +
(PID.TID 0000.0001)     13 z
(PID.TID 0000.0001)     12 y
(PID.TID 0000.0001)     11 x
(PID.TID 0000.0001)     10 v
(PID.TID 0000.0001)      9 t
(PID.TID 0000.0001)      8 r
(PID.TID 0000.0001)      7 p
(PID.TID 0000.0001)      6 m
(PID.TID 0000.0001)      5 k
(PID.TID 0000.0001)      4 h
(PID.TID 0000.0001)      3 e
(PID.TID 0000.0001)      2 c
(PID.TID 0000.0001)      1 -
(PID.TID 0000.0001) // =======================================================
(PID.TID 0000.0001) // END OF FIELD                                          =
(PID.TID 0000.0001) // =======================================================
(PID.TID 0000.0001) 
(PID.TID 0000.0001) // =======================================================
(PID.TID 0000.0001) // Model current state
(PID.TID 0000.0001) // =======================================================
(PID.TID 0000.0001) 
(PID.TID 0000.0001) // =======================================================
(PID.TID 0000.0001) // Begin MONITOR dynamic field statistics
(PID.TID 0000.0001) // =======================================================
(PID.TID 0000.0001) %MON time_tsnumber                =                     0
(PID.TID 0000.0001) %MON time_secondsf                =   0.0000000000000E+00
(PID.TID 0000.0001) %MON time_secondsi                =                     0
(PID.TID 0000.0001) %MON dynstat_eta_max              =   0.0000000000000E+00
(PID.TID 0000.0001) %MON dynstat_eta_min              =   0.0000000000000E+00
(PID.TID 0000.0001) %MON dynstat_eta_mean             =   0.0000000000000E+00
(PID.TID 0000.0001) %MON dynstat_eta_sd               =   0.0000000000000E+00
(PID.TID 0000.0001) %MON dynstat_uvel_max             =   0.0000000000000E+00
(PID.TID 0000.0001) %MON dynstat_uvel_min             =   0.0000000000000E+00
(PID.TID 0000.0001) %MON dynstat_uvel_mean            =   0.0000000000000E+00
(PID.TID 0000.0001) %MON dynstat_uvel_sd              =   0.0000000000000E+00
(PID.TID 0000.0001) %MON dynstat_vvel_max             =   0.0000000000000E+00
(PID.TID 0000.0001) %MON dynstat_vvel_min             =   0.0000000000000E+00
(PID.TID 0000.0001) %MON dynstat_vvel_mean            =   0.0000000000000E+00
(PID.TID 0000.0001) %MON dynstat_vvel_sd              =   0.0000000000000E+00
(PID.TID 0000.0001) %MON dynstat_wvel_max             =   0.0000000000000E+00
(PID.TID 0000.0001) %MON dynstat_wvel_min             =   0.0000000000000E+00
(PID.TID 0000.0001) %MON dynstat_wvel_mean            =   0.0000000000000E+00
(PID.TID 0000.0001) %MON dynstat_wvel_sd              =   0.0000000000000E+00
(PID.TID 0000.0001) %MON dynstat_theta_max            =   2.0579432679982E+01
(PID.TID 0000.0001) %MON dynstat_theta_min            =   1.5473592277915E+01
(PID.TID 0000.0001) %MON dynstat_theta_mean           =   1.8559293238192E+01
(PID.TID 0000.0001) %MON dynstat_theta_sd             =   1.3411817369820E+00
(PID.TID 0000.0001) %MON dynstat_salt_max             =   1.0000000000000E+00
(PID.TID 0000.0001) %MON dynstat_salt_min             =   3.9497512775329E-01
(PID.TID 0000.0001) %MON dynstat_salt_mean            =   7.6815029762220E-01
(PID.TID 0000.0001) %MON dynstat_salt_sd              =   2.0073460430981E-01
(PID.TID 0000.0001) %MON advcfl_uvel_max              =   0.0000000000000E+00
(PID.TID 0000.0001) %MON advcfl_vvel_max              =   0.0000000000000E+00
(PID.TID 0000.0001) %MON advcfl_wvel_max              =   0.0000000000000E+00
(PID.TID 0000.0001) %MON ke_max                       =   0.0000000000000E+00
(PID.TID 0000.0001) %MON ke_mean                      =   0.0000000000000E+00
(PID.TID 0000.0001) // =======================================================
(PID.TID 0000.0001) // End MONITOR dynamic field statistics
(PID.TID 0000.0001) // =======================================================
 cg2d: Sum(rhs),rhsMax =   0.00000000000000E+00  1.06848311795785E-02
(PID.TID 0000.0001)                    cg2d_init_res =    3.66988281473929E+00
(PID.TID 0000.0001)                       cg2d_iters =    15
(PID.TID 0000.0001)                         cg2d_res =    1.45709623277050E-14
(PID.TID 0000.0001) // =======================================================
(PID.TID 0000.0001) // Begin MONITOR dynamic field statistics
(PID.TID 0000.0001) // =======================================================
(PID.TID 0000.0001) %MON time_tsnumber                =                     1
(PID.TID 0000.0001) %MON time_secondsf                =   1.8000000000000E+03
(PID.TID 0000.0001) %MON time_secondsi                =                  1800
(PID.TID 0000.0001) %MON dynstat_eta_max              =   1.0650093375021E-01
(PID.TID 0000.0001) %MON dynstat_eta_min              =  -1.0650093375021E-01
(PID.TID 0000.0001) %MON dynstat_eta_mean             =  -4.4767057444563E-19
(PID.TID 0000.0001) %MON dynstat_eta_sd               =   7.2366763897197E-02
(PID.TID 0000.0001) %MON dynstat_uvel_max             =   0.0000000000000E+00
(PID.TID 0000.0001) %MON dynstat_uvel_min             =   0.0000000000000E+00
(PID.TID 0000.0001) %MON dynstat_uvel_mean            =   0.0000000000000E+00
(PID.TID 0000.0001) %MON dynstat_uvel_sd              =   0.0000000000000E+00
(PID.TID 0000.0001) %MON dynstat_vvel_max             =   1.8167009265407E-02
(PID.TID 0000.0001) %MON dynstat_vvel_min             =  -7.4157687584045E-03
(PID.TID 0000.0001) %MON dynstat_vvel_mean            =   2.6426422841237E-03
(PID.TID 0000.0001) %MON dynstat_vvel_sd              =   6.7197191708603E-03
(PID.TID 0000.0001) %MON dynstat_wvel_max             =   0.0000000000000E+00
(PID.TID 0000.0001) %MON dynstat_wvel_min             =   0.0000000000000E+00
(PID.TID 0000.0001) %MON dynstat_wvel_mean            =   0.0000000000000E+00
(PID.TID 0000.0001) %MON dynstat_wvel_sd              =   0.0000000000000E+00
(PID.TID 0000.0001) %MON dynstat_theta_max            =   2.0579249025974E+01
(PID.TID 0000.0001) %MON dynstat_theta_min            =   1.5473592628151E+01
(PID.TID 0000.0001) %MON dynstat_theta_mean           =   1.8559319860002E+01
(PID.TID 0000.0001) %MON dynstat_theta_sd             =   1.3412067771301E+00
(PID.TID 0000.0001) %MON dynstat_salt_max             =   9.9975932365055E-01
(PID.TID 0000.0001) %MON dynstat_salt_min             =   3.9622464400562E-01
(PID.TID 0000.0001) %MON dynstat_salt_mean            =   7.6813294542663E-01
(PID.TID 0000.0001) %MON dynstat_salt_sd              =   2.0047758808982E-01
(PID.TID 0000.0001) %MON advcfl_uvel_max              =   0.0000000000000E+00
(PID.TID 0000.0001) %MON advcfl_vvel_max              =   4.1376109887700E-03
(PID.TID 0000.0001) %MON advcfl_wvel_max              =   0.0000000000000E+00
(PID.TID 0000.0001) %MON ke_max                       =   1.6502011282470E-04
(PID.TID 0000.0001) %MON ke_mean                      =   2.5228153537290E-05
(PID.TID 0000.0001) // =======================================================
(PID.TID 0000.0001) // End MONITOR dynamic field statistics
(PID.TID 0000.0001) // =======================================================
 cg2d: Sum(rhs),rhsMax =   5.55111512312578E-16  9.04588833263670E-03
(PID.TID 0000.0001)                    cg2d_init_res =    6.65635827309373E-01
(PID.TID 0000.0001)                       cg2d_iters =    29
(PID.TID 0000.0001)                         cg2d_res =    1.45737945780433E-14
(PID.TID 0000.0001) // =======================================================
(PID.TID 0000.0001) // Begin MONITOR dynamic field statistics
(PID.TID 0000.0001) // =======================================================
(PID.TID 0000.0001) %MON time_tsnumber                =                     2
(PID.TID 0000.0001) %MON time_secondsf                =   3.6000000000000E+03
(PID.TID 0000.0001) %MON time_secondsi                =                  3600
(PID.TID 0000.0001) %MON dynstat_eta_max              =   9.0151140195977E-02
(PID.TID 0000.0001) %MON dynstat_eta_min              =  -9.0143321437699E-02
(PID.TID 0000.0001) %MON dynstat_eta_mean             =  -3.1835915871760E-07
(PID.TID 0000.0001) %MON dynstat_eta_sd               =   6.1253455644567E-02
(PID.TID 0000.0001) %MON dynstat_uvel_max             =   5.2320986684373E-03
(PID.TID 0000.0001) %MON dynstat_uvel_min             =  -2.1357414024205E-03
(PID.TID 0000.0001) %MON dynstat_uvel_mean            =   7.3652997854287E-04
(PID.TID 0000.0001) %MON dynstat_uvel_sd              =   1.9057126379996E-03
(PID.TID 0000.0001) %MON dynstat_vvel_max             =   3.3739967827170E-02
(PID.TID 0000.0001) %MON dynstat_vvel_min             =  -7.8225989928194E-03
(PID.TID 0000.0001) %MON dynstat_vvel_mean            =   7.2100729662278E-03
(PID.TID 0000.0001) %MON dynstat_vvel_sd              =   1.1180696440604E-02
(PID.TID 0000.0001) %MON dynstat_wvel_max             =   1.1446819394259E-04
(PID.TID 0000.0001) %MON dynstat_wvel_min             =  -1.1446819394257E-04
(PID.TID 0000.0001) %MON dynstat_wvel_mean            =  -1.1570652217117E-20
(PID.TID 0000.0001) %MON dynstat_wvel_sd              =   6.2094297136402E-05
(PID.TID 0000.0001) %MON dynstat_theta_max            =   2.0578925722287E+01
(PID.TID 0000.0001) %MON dynstat_theta_min            =   1.5473689273168E+01
(PID.TID 0000.0001) %MON dynstat_theta_mean           =   1.8559338659982E+01
(PID.TID 0000.0001) %MON dynstat_theta_sd             =   1.3411834777898E+00
(PID.TID 0000.0001) %MON dynstat_salt_max             =   9.9961440639083E-01
(PID.TID 0000.0001) %MON dynstat_salt_min             =   3.9695830470350E-01
(PID.TID 0000.0001) %MON dynstat_salt_mean            =   7.6812221358329E-01
(PID.TID 0000.0001) %MON dynstat_salt_sd              =   2.0031788796224E-01
(PID.TID 0000.0001) %MON advcfl_uvel_max              =   9.4177776031871E-04
(PID.TID 0000.0001) %MON advcfl_vvel_max              =   7.6844162736389E-03
(PID.TID 0000.0001) %MON advcfl_wvel_max              =   4.2600373500082E-03
(PID.TID 0000.0001) %MON ke_max                       =   5.8287220066952E-04
(PID.TID 0000.0001) %MON ke_mean                      =   8.7728943247797E-05
(PID.TID 0000.0001) // =======================================================
(PID.TID 0000.0001) // End MONITOR dynamic field statistics
(PID.TID 0000.0001) // =======================================================
 cg2d: Sum(rhs),rhsMax =  -4.44089209850063E-16  7.38879391755681E-03
(PID.TID 0000.0001)                    cg2d_init_res =    8.27340696377060E-01
(PID.TID 0000.0001)                       cg2d_iters =    29
(PID.TID 0000.0001)                         cg2d_res =    7.94881114064500E-14
(PID.TID 0000.0001) // =======================================================
(PID.TID 0000.0001) // Begin MONITOR dynamic field statistics
(PID.TID 0000.0001) // =======================================================
(PID.TID 0000.0001) %MON time_tsnumber                =                     3
(PID.TID 0000.0001) %MON time_secondsf                =   5.4000000000000E+03
(PID.TID 0000.0001) %MON time_secondsi                =                  5400
(PID.TID 0000.0001) %MON dynstat_eta_max              =   7.3517437790316E-02
(PID.TID 0000.0001) %MON dynstat_eta_min              =  -7.3571419042328E-02
(PID.TID 0000.0001) %MON dynstat_eta_mean             =   2.1695508607346E-06
(PID.TID 0000.0001) %MON dynstat_eta_sd               =   4.9972346403455E-02
(PID.TID 0000.0001) %MON dynstat_uvel_max             =   1.2986476732033E-02
(PID.TID 0000.0001) %MON dynstat_uvel_min             =  -3.5877217579257E-03
(PID.TID 0000.0001) %MON dynstat_uvel_mean            =   2.4698321272563E-03
(PID.TID 0000.0001) %MON dynstat_uvel_sd              =   4.3682826331862E-03
(PID.TID 0000.0001) %MON dynstat_vvel_max             =   4.4838183124986E-02
(PID.TID 0000.0001) %MON dynstat_vvel_min             =  -1.0525523511828E-02
(PID.TID 0000.0001) %MON dynstat_vvel_mean            =   9.5239022630461E-03
(PID.TID 0000.0001) %MON dynstat_vvel_sd              =   1.4886587736969E-02
(PID.TID 0000.0001) %MON dynstat_wvel_max             =   1.1087394901100E-04
(PID.TID 0000.0001) %MON dynstat_wvel_min             =  -1.1089634684179E-04
(PID.TID 0000.0001) %MON dynstat_wvel_mean            =   6.1234490971237E-10
(PID.TID 0000.0001) %MON dynstat_wvel_sd              =   5.1091064962885E-05
(PID.TID 0000.0001) %MON dynstat_theta_max            =   2.0578867768340E+01
(PID.TID 0000.0001) %MON dynstat_theta_min            =   1.5473755051768E+01
(PID.TID 0000.0001) %MON dynstat_theta_mean           =   1.8559421464148E+01
(PID.TID 0000.0001) %MON dynstat_theta_sd             =   1.3412442840918E+00
(PID.TID 0000.0001) %MON dynstat_salt_max             =   9.9947027364215E-01
(PID.TID 0000.0001) %MON dynstat_salt_min             =   3.9767800093996E-01
(PID.TID 0000.0001) %MON dynstat_salt_mean            =   7.6811130169954E-01
(PID.TID 0000.0001) %MON dynstat_salt_sd              =   2.0015857555880E-01
(PID.TID 0000.0001) %MON advcfl_uvel_max              =   2.3375658117660E-03
(PID.TID 0000.0001) %MON advcfl_vvel_max              =   1.0212080398268E-02
(PID.TID 0000.0001) %MON advcfl_wvel_max              =   1.9259539214877E-03
(PID.TID 0000.0001) %MON ke_max                       =   1.0894664999484E-03
(PID.TID 0000.0001) %MON ke_mean                      =   1.6371124425650E-04
(PID.TID 0000.0001) // =======================================================
(PID.TID 0000.0001) // End MONITOR dynamic field statistics
(PID.TID 0000.0001) // =======================================================
 cg2d: Sum(rhs),rhsMax =   2.22044604925031E-15  7.29274702125895E-03
(PID.TID 0000.0001)                    cg2d_init_res =    5.14729068002510E-02
(PID.TID 0000.0001)                       cg2d_iters =    29
(PID.TID 0000.0001)                         cg2d_res =    7.35802765758336E-15
(PID.TID 0000.0001) // =======================================================
(PID.TID 0000.0001) // Begin MONITOR dynamic field statistics
(PID.TID 0000.0001) // =======================================================
(PID.TID 0000.0001) %MON time_tsnumber                =                     4
(PID.TID 0000.0001) %MON time_secondsf                =   7.2000000000000E+03
(PID.TID 0000.0001) %MON time_secondsi                =                  7200
(PID.TID 0000.0001) %MON dynstat_eta_max              =   7.2482939701380E-02
(PID.TID 0000.0001) %MON dynstat_eta_min              =  -7.2570176555103E-02
(PID.TID 0000.0001) %MON dynstat_eta_mean             =   3.5121343146802E-06
(PID.TID 0000.0001) %MON dynstat_eta_sd               =   4.9280767932150E-02
(PID.TID 0000.0001) %MON dynstat_uvel_max             =   2.2254219860667E-02
(PID.TID 0000.0001) %MON dynstat_uvel_min             =  -5.7740888692139E-03
(PID.TID 0000.0001) %MON dynstat_uvel_mean            =   4.3706353728483E-03
(PID.TID 0000.0001) %MON dynstat_uvel_sd              =   7.4114109528963E-03
(PID.TID 0000.0001) %MON dynstat_vvel_max             =   5.4089066039089E-02
(PID.TID 0000.0001) %MON dynstat_vvel_min             =  -1.3210496570879E-02
(PID.TID 0000.0001) %MON dynstat_vvel_mean            =   1.1281472927281E-02
(PID.TID 0000.0001) %MON dynstat_vvel_sd              =   1.8066034917510E-02
(PID.TID 0000.0001) %MON dynstat_wvel_max             =   1.4947164966459E-04
(PID.TID 0000.0001) %MON dynstat_wvel_min             =  -1.4976882231506E-04
(PID.TID 0000.0001) %MON dynstat_wvel_mean            =   8.1688971195893E-09
(PID.TID 0000.0001) %MON dynstat_wvel_sd              =   6.9242212489083E-05
(PID.TID 0000.0001) %MON dynstat_theta_max            =   2.0578724624831E+01
(PID.TID 0000.0001) %MON dynstat_theta_min            =   1.5473854100139E+01
(PID.TID 0000.0001) %MON dynstat_theta_mean           =   1.8559501839633E+01
(PID.TID 0000.0001) %MON dynstat_theta_sd             =   1.3412891273266E+00
(PID.TID 0000.0001) %MON dynstat_salt_max             =   9.9932724803822E-01
(PID.TID 0000.0001) %MON dynstat_salt_min             =   3.9838175877454E-01
(PID.TID 0000.0001) %MON dynstat_salt_mean            =   7.6810044874951E-01
(PID.TID 0000.0001) %MON dynstat_salt_sd              =   1.9999968384933E-01
(PID.TID 0000.0001) %MON advcfl_uvel_max              =   4.0057595749201E-03
(PID.TID 0000.0001) %MON advcfl_vvel_max              =   1.2319006983818E-02
(PID.TID 0000.0001) %MON advcfl_wvel_max              =   2.6276959992976E-03
(PID.TID 0000.0001) %MON ke_max                       =   1.7101768653082E-03
(PID.TID 0000.0001) %MON ke_mean                      =   2.5652536957449E-04
(PID.TID 0000.0001) // =======================================================
(PID.TID 0000.0001) // End MONITOR dynamic field statistics
(PID.TID 0000.0001) // =======================================================
 cg2d: Sum(rhs),rhsMax =   1.33226762955019E-15  7.44107705152819E-03
(PID.TID 0000.0001)                    cg2d_init_res =    6.86016423747069E-02
(PID.TID 0000.0001)                       cg2d_iters =    29
(PID.TID 0000.0001)                         cg2d_res =    9.95208518180883E-15
(PID.TID 0000.0001) // =======================================================
(PID.TID 0000.0001) // Begin MONITOR dynamic field statistics
(PID.TID 0000.0001) // =======================================================
(PID.TID 0000.0001) %MON time_tsnumber                =                     5
(PID.TID 0000.0001) %MON time_secondsf                =   9.0000000000000E+03
(PID.TID 0000.0001) %MON time_secondsi                =                  9000
(PID.TID 0000.0001) %MON dynstat_eta_max              =   7.3840719329814E-02
(PID.TID 0000.0001) %MON dynstat_eta_min              =  -7.3979425098914E-02
(PID.TID 0000.0001) %MON dynstat_eta_mean             =   5.5861804305693E-06
(PID.TID 0000.0001) %MON dynstat_eta_sd               =   5.0220697900933E-02
(PID.TID 0000.0001) %MON dynstat_uvel_max             =   3.2986250279828E-02
(PID.TID 0000.0001) %MON dynstat_uvel_min             =  -8.4416788444025E-03
(PID.TID 0000.0001) %MON dynstat_uvel_mean            =   6.5194387415567E-03
(PID.TID 0000.0001) %MON dynstat_uvel_sd              =   1.0963234361697E-02
(PID.TID 0000.0001) %MON dynstat_vvel_max             =   6.1759181193001E-02
(PID.TID 0000.0001) %MON dynstat_vvel_min             =  -1.5131902554167E-02
(PID.TID 0000.0001) %MON dynstat_vvel_mean            =   1.2849178067829E-02
(PID.TID 0000.0001) %MON dynstat_vvel_sd              =   2.0640096337851E-02
(PID.TID 0000.0001) %MON dynstat_wvel_max             =   1.8868701758635E-04
(PID.TID 0000.0001) %MON dynstat_wvel_min             =  -1.8937494855617E-04
(PID.TID 0000.0001) %MON dynstat_wvel_mean            =   1.8033073027138E-08
(PID.TID 0000.0001) %MON dynstat_wvel_sd              =   8.8676025886359E-05
(PID.TID 0000.0001) %MON dynstat_theta_max            =   2.0578547774925E+01
(PID.TID 0000.0001) %MON dynstat_theta_min            =   1.5473975021206E+01
(PID.TID 0000.0001) %MON dynstat_theta_mean           =   1.8559587880561E+01
(PID.TID 0000.0001) %MON dynstat_theta_sd             =   1.3413316896134E+00
(PID.TID 0000.0001) %MON dynstat_salt_max             =   9.9918493066632E-01
(PID.TID 0000.0001) %MON dynstat_salt_min             =   3.9907028525847E-01
(PID.TID 0000.0001) %MON dynstat_salt_mean            =   7.6808967241386E-01
(PID.TID 0000.0001) %MON dynstat_salt_sd              =   1.9984120376949E-01
(PID.TID 0000.0001) %MON advcfl_uvel_max              =   5.9375250503691E-03
(PID.TID 0000.0001) %MON advcfl_vvel_max              =   1.4065907218321E-02
(PID.TID 0000.0001) %MON advcfl_wvel_max              =   3.4167402545015E-03
(PID.TID 0000.0001) %MON ke_max                       =   2.4505987919677E-03
(PID.TID 0000.0001) %MON ke_mean                      =   3.6737115935553E-04
(PID.TID 0000.0001) // =======================================================
(PID.TID 0000.0001) // End MONITOR dynamic field statistics
(PID.TID 0000.0001) // =======================================================
 cg2d: Sum(rhs),rhsMax =   7.77156117237610E-16  7.47278409590769E-03
(PID.TID 0000.0001)                    cg2d_init_res =    1.08944742489193E-02
(PID.TID 0000.0001)                       cg2d_iters =    29
(PID.TID 0000.0001)                         cg2d_res =    3.50374768499635E-15
(PID.TID 0000.0001) // =======================================================
(PID.TID 0000.0001) // Begin MONITOR dynamic field statistics
(PID.TID 0000.0001) // =======================================================
(PID.TID 0000.0001) %MON time_tsnumber                =                     6
(PID.TID 0000.0001) %MON time_secondsf                =   1.0800000000000E+04
(PID.TID 0000.0001) %MON time_secondsi                =                 10800
(PID.TID 0000.0001) %MON dynstat_eta_max              =   7.3994806803761E-02
(PID.TID 0000.0001) %MON dynstat_eta_min              =  -7.4200295051976E-02
(PID.TID 0000.0001) %MON dynstat_eta_mean             =   8.2766434298356E-06
(PID.TID 0000.0001) %MON dynstat_eta_sd               =   5.0347916910962E-02
(PID.TID 0000.0001) %MON dynstat_uvel_max             =   4.4926459276838E-02
(PID.TID 0000.0001) %MON dynstat_uvel_min             =  -1.1372456368306E-02
(PID.TID 0000.0001) %MON dynstat_uvel_mean            =   8.9214582158520E-03
(PID.TID 0000.0001) %MON dynstat_uvel_sd              =   1.4908321947850E-02
(PID.TID 0000.0001) %MON dynstat_vvel_max             =   6.7376564181952E-02
(PID.TID 0000.0001) %MON dynstat_vvel_min             =  -1.6439555590144E-02
(PID.TID 0000.0001) %MON dynstat_vvel_mean            =   1.4025438119379E-02
(PID.TID 0000.0001) %MON dynstat_vvel_sd              =   2.2506106870030E-02
(PID.TID 0000.0001) %MON dynstat_wvel_max             =   2.1623449887860E-04
(PID.TID 0000.0001) %MON dynstat_wvel_min             =  -2.1752409333785E-04
(PID.TID 0000.0001) %MON dynstat_wvel_mean            =   3.3509092689674E-08
(PID.TID 0000.0001) %MON dynstat_wvel_sd              =   1.0190454565056E-04
(PID.TID 0000.0001) %MON dynstat_theta_max            =   2.0578371261195E+01
(PID.TID 0000.0001) %MON dynstat_theta_min            =   1.5473903235889E+01
(PID.TID 0000.0001) %MON dynstat_theta_mean           =   1.8559683138213E+01
(PID.TID 0000.0001) %MON dynstat_theta_sd             =   1.3413799306160E+00
(PID.TID 0000.0001) %MON dynstat_salt_max             =   9.9904290800370E-01
(PID.TID 0000.0001) %MON dynstat_salt_min             =   3.9974454931891E-01
(PID.TID 0000.0001) %MON dynstat_salt_mean            =   7.6807893323007E-01
(PID.TID 0000.0001) %MON dynstat_salt_sd              =   1.9968312866767E-01
(PID.TID 0000.0001) %MON advcfl_uvel_max              =   8.0867626698309E-03
(PID.TID 0000.0001) %MON advcfl_vvel_max              =   1.5345289269800E-02
(PID.TID 0000.0001) %MON advcfl_wvel_max              =   3.9381115355858E-03
(PID.TID 0000.0001) %MON ke_max                       =   3.2780620736647E-03
(PID.TID 0000.0001) %MON ke_mean                      =   4.9120157591143E-04
(PID.TID 0000.0001) // =======================================================
(PID.TID 0000.0001) // End MONITOR dynamic field statistics
(PID.TID 0000.0001) // =======================================================
 cg2d: Sum(rhs),rhsMax =   1.66533453693773E-15  7.46193940168818E-03
(PID.TID 0000.0001)                    cg2d_init_res =    1.45774269571221E-02
(PID.TID 0000.0001)                       cg2d_iters =    29
(PID.TID 0000.0001)                         cg2d_res =    1.08246007811456E-14
(PID.TID 0000.0001) // =======================================================
(PID.TID 0000.0001) // Begin MONITOR dynamic field statistics
(PID.TID 0000.0001) // =======================================================
(PID.TID 0000.0001) %MON time_tsnumber                =                     7
(PID.TID 0000.0001) %MON time_secondsf                =   1.2600000000000E+04
(PID.TID 0000.0001) %MON time_secondsi                =                 12600
(PID.TID 0000.0001) %MON dynstat_eta_max              =   7.3694567427213E-02
(PID.TID 0000.0001) %MON dynstat_eta_min              =  -7.3976604604923E-02
(PID.TID 0000.0001) %MON dynstat_eta_mean             =   1.1360482310853E-05
(PID.TID 0000.0001) %MON dynstat_eta_sd               =   5.0169735934889E-02
(PID.TID 0000.0001) %MON dynstat_uvel_max             =   5.7654084426630E-02
(PID.TID 0000.0001) %MON dynstat_uvel_min             =  -1.4472096709422E-02
(PID.TID 0000.0001) %MON dynstat_uvel_mean            =   1.1487434099697E-02
(PID.TID 0000.0001) %MON dynstat_uvel_sd              =   1.9109722459438E-02
(PID.TID 0000.0001) %MON dynstat_vvel_max             =   7.0671015807352E-02
(PID.TID 0000.0001) %MON dynstat_vvel_min             =  -1.7188541455326E-02
(PID.TID 0000.0001) %MON dynstat_vvel_mean            =   1.4707410324207E-02
(PID.TID 0000.0001) %MON dynstat_vvel_sd              =   2.3599043557621E-02
(PID.TID 0000.0001) %MON dynstat_wvel_max             =   2.3483471876370E-04
(PID.TID 0000.0001) %MON dynstat_wvel_min             =  -2.3687907966815E-04
(PID.TID 0000.0001) %MON dynstat_wvel_mean            =   5.2873135533217E-08
(PID.TID 0000.0001) %MON dynstat_wvel_sd              =   1.1073788794420E-04
(PID.TID 0000.0001) %MON dynstat_theta_max            =   2.0578194903722E+01
(PID.TID 0000.0001) %MON dynstat_theta_min            =   1.5473762901239E+01
(PID.TID 0000.0001) %MON dynstat_theta_mean           =   1.8559784218536E+01
(PID.TID 0000.0001) %MON dynstat_theta_sd             =   1.3414317679367E+00
(PID.TID 0000.0001) %MON dynstat_salt_max             =   9.9890088646724E-01
(PID.TID 0000.0001) %MON dynstat_salt_min             =   4.0040594475853E-01
(PID.TID 0000.0001) %MON dynstat_salt_mean            =   7.6806823882845E-01
(PID.TID 0000.0001) %MON dynstat_salt_sd              =   1.9952544522586E-01
(PID.TID 0000.0001) %MON advcfl_uvel_max              =   1.0377735196793E-02
(PID.TID 0000.0001) %MON advcfl_vvel_max              =   1.6095614160820E-02
(PID.TID 0000.0001) %MON advcfl_wvel_max              =   4.2845506761978E-03
(PID.TID 0000.0001) %MON ke_max                       =   4.1578185824506E-03
(PID.TID 0000.0001) %MON ke_mean                      =   6.2271136989019E-04
(PID.TID 0000.0001) // =======================================================
(PID.TID 0000.0001) // End MONITOR dynamic field statistics
(PID.TID 0000.0001) // =======================================================
 cg2d: Sum(rhs),rhsMax =   1.44328993201270E-15  7.45727783924914E-03
(PID.TID 0000.0001)                    cg2d_init_res =    1.35830865712068E-02
(PID.TID 0000.0001)                       cg2d_iters =    29
(PID.TID 0000.0001)                         cg2d_res =    1.81365899754871E-14
(PID.TID 0000.0001) // =======================================================
(PID.TID 0000.0001) // Begin MONITOR dynamic field statistics
(PID.TID 0000.0001) // =======================================================
(PID.TID 0000.0001) %MON time_tsnumber                =                     8
(PID.TID 0000.0001) %MON time_secondsf                =   1.4400000000000E+04
(PID.TID 0000.0001) %MON time_secondsi                =                 14400
(PID.TID 0000.0001) %MON dynstat_eta_max              =   7.3425246636402E-02
(PID.TID 0000.0001) %MON dynstat_eta_min              =  -7.3792564236795E-02
(PID.TID 0000.0001) %MON dynstat_eta_mean             =   1.4795185493865E-05
(PID.TID 0000.0001) %MON dynstat_eta_sd               =   5.0015498003184E-02
(PID.TID 0000.0001) %MON dynstat_uvel_max             =   7.0721638546775E-02
(PID.TID 0000.0001) %MON dynstat_uvel_min             =  -1.7645979335827E-02
(PID.TID 0000.0001) %MON dynstat_uvel_mean            =   1.4120512593751E-02
(PID.TID 0000.0001) %MON dynstat_uvel_sd              =   2.3422837148587E-02
(PID.TID 0000.0001) %MON dynstat_vvel_max             =   7.1552380636285E-02
(PID.TID 0000.0001) %MON dynstat_vvel_min             =  -1.7350583079096E-02
(PID.TID 0000.0001) %MON dynstat_vvel_mean            =   1.4879380165561E-02
(PID.TID 0000.0001) %MON dynstat_vvel_sd              =   2.3887427115470E-02
(PID.TID 0000.0001) %MON dynstat_wvel_max             =   2.4555292490209E-04
(PID.TID 0000.0001) %MON dynstat_wvel_min             =  -2.4843871644176E-04
(PID.TID 0000.0001) %MON dynstat_wvel_mean            =   7.4520260374477E-08
(PID.TID 0000.0001) %MON dynstat_wvel_sd              =   1.1593384836781E-04
(PID.TID 0000.0001) %MON dynstat_theta_max            =   2.0578017356023E+01
(PID.TID 0000.0001) %MON dynstat_theta_min            =   1.5473619450966E+01
(PID.TID 0000.0001) %MON dynstat_theta_mean           =   1.8559887343463E+01
(PID.TID 0000.0001) %MON dynstat_theta_sd             =   1.3414846756894E+00
(PID.TID 0000.0001) %MON dynstat_salt_max             =   9.9875874792718E-01
(PID.TID 0000.0001) %MON dynstat_salt_min             =   4.0105591015618E-01
(PID.TID 0000.0001) %MON dynstat_salt_mean            =   7.6805760443383E-01
(PID.TID 0000.0001) %MON dynstat_salt_sd              =   1.9936814344619E-01
(PID.TID 0000.0001) %MON advcfl_uvel_max              =   1.2729894938419E-02
(PID.TID 0000.0001) %MON advcfl_vvel_max              =   1.6296348621183E-02
(PID.TID 0000.0001) %MON advcfl_wvel_max              =   4.4942908510508E-03
(PID.TID 0000.0001) %MON ke_max                       =   5.0588440687627E-03
(PID.TID 0000.0001) %MON ke_mean                      =   7.5723737589081E-04
(PID.TID 0000.0001) // =======================================================
(PID.TID 0000.0001) // End MONITOR dynamic field statistics
(PID.TID 0000.0001) // =======================================================
 cg2d: Sum(rhs),rhsMax =   1.11022302462516E-16  7.46007315494553E-03
(PID.TID 0000.0001)                    cg2d_init_res =    1.22741357580083E-02
(PID.TID 0000.0001)                       cg2d_iters =    29
(PID.TID 0000.0001)                         cg2d_res =    2.42195825239467E-14
(PID.TID 0000.0001) // =======================================================
(PID.TID 0000.0001) // Begin MONITOR dynamic field statistics
(PID.TID 0000.0001) // =======================================================
(PID.TID 0000.0001) %MON time_tsnumber                =                     9
(PID.TID 0000.0001) %MON time_secondsf                =   1.6200000000000E+04
(PID.TID 0000.0001) %MON time_secondsi                =                 16200
(PID.TID 0000.0001) %MON dynstat_eta_max              =   7.3201691090380E-02
(PID.TID 0000.0001) %MON dynstat_eta_min              =  -7.3661111426800E-02
(PID.TID 0000.0001) %MON dynstat_eta_mean             =   1.8503006379248E-05
(PID.TID 0000.0001) %MON dynstat_eta_sd               =   4.9894647029027E-02
(PID.TID 0000.0001) %MON dynstat_uvel_max             =   8.3685000106416E-02
(PID.TID 0000.0001) %MON dynstat_uvel_min             =  -2.0785412499224E-02
(PID.TID 0000.0001) %MON dynstat_uvel_mean            =   1.6730210252405E-02
(PID.TID 0000.0001) %MON dynstat_uvel_sd              =   2.7701175802244E-02
(PID.TID 0000.0001) %MON dynstat_vvel_max             =   7.0016292373017E-02
(PID.TID 0000.0001) %MON dynstat_vvel_min             =  -1.6913301679116E-02
(PID.TID 0000.0001) %MON dynstat_vvel_mean            =   1.4545889259637E-02
(PID.TID 0000.0001) %MON dynstat_vvel_sd              =   2.3367305367228E-02
(PID.TID 0000.0001) %MON dynstat_wvel_max             =   2.4800522801217E-04
(PID.TID 0000.0001) %MON dynstat_wvel_min             =  -2.5174262299722E-04
(PID.TID 0000.0001) %MON dynstat_wvel_mean            =   9.6607581448371E-08
(PID.TID 0000.0001) %MON dynstat_wvel_sd              =   1.1727417117557E-04
(PID.TID 0000.0001) %MON dynstat_theta_max            =   2.0577840485430E+01
(PID.TID 0000.0001) %MON dynstat_theta_min            =   1.5473477794759E+01
(PID.TID 0000.0001) %MON dynstat_theta_mean           =   1.8559989327911E+01
(PID.TID 0000.0001) %MON dynstat_theta_sd             =   1.3415370231213E+00
(PID.TID 0000.0001) %MON dynstat_salt_max             =   9.9861656265882E-01
(PID.TID 0000.0001) %MON dynstat_salt_min             =   4.0169582795461E-01
(PID.TID 0000.0001) %MON dynstat_salt_mean            =   7.6804703569425E-01
(PID.TID 0000.0001) %MON dynstat_salt_sd              =   1.9921121905460E-01
(PID.TID 0000.0001) %MON advcfl_uvel_max              =   1.5063300019155E-02
(PID.TID 0000.0001) %MON advcfl_vvel_max              =   1.5946498209100E-02
(PID.TID 0000.0001) %MON advcfl_wvel_max              =   4.5576935293130E-03
(PID.TID 0000.0001) %MON ke_max                       =   5.9505925477202E-03
(PID.TID 0000.0001) %MON ke_mean                      =   8.9021488689965E-04
(PID.TID 0000.0001) // =======================================================
(PID.TID 0000.0001) // End MONITOR dynamic field statistics
(PID.TID 0000.0001) // =======================================================
 cg2d: Sum(rhs),rhsMax =  -6.66133814775094E-16  7.46585469603035E-03
(PID.TID 0000.0001)                    cg2d_init_res =    1.24893158536367E-02
(PID.TID 0000.0001)                       cg2d_iters =    29
(PID.TID 0000.0001)                         cg2d_res =    2.88669722022357E-14
(PID.TID 0000.0001) // =======================================================
(PID.TID 0000.0001) // Begin MONITOR dynamic field statistics
(PID.TID 0000.0001) // =======================================================
(PID.TID 0000.0001) %MON time_tsnumber                =                    10
(PID.TID 0000.0001) %MON time_secondsf                =   1.8000000000000E+04
(PID.TID 0000.0001) %MON time_secondsi                =                 18000
(PID.TID 0000.0001) %MON dynstat_eta_max              =   7.2985617708601E-02
(PID.TID 0000.0001) %MON dynstat_eta_min              =  -7.3540646962100E-02
(PID.TID 0000.0001) %MON dynstat_eta_mean             =   2.2349582636468E-05
(PID.TID 0000.0001) %MON dynstat_eta_sd               =   4.9780062794281E-02
(PID.TID 0000.0001) %MON dynstat_uvel_max             =   9.6108698597873E-02
(PID.TID 0000.0001) %MON dynstat_uvel_min             =  -2.3781217273266E-02
(PID.TID 0000.0001) %MON dynstat_uvel_mean            =   1.9228953997144E-02
(PID.TID 0000.0001) %MON dynstat_uvel_sd              =   3.1800518437869E-02
(PID.TID 0000.0001) %MON dynstat_vvel_max             =   6.6130747669371E-02
(PID.TID 0000.0001) %MON dynstat_vvel_min             =  -1.5894355582647E-02
(PID.TID 0000.0001) %MON dynstat_vvel_mean            =   1.3722210428153E-02
(PID.TID 0000.0001) %MON dynstat_vvel_sd              =   2.2061387945166E-02
(PID.TID 0000.0001) %MON dynstat_wvel_max             =   2.4202000571979E-04
(PID.TID 0000.0001) %MON dynstat_wvel_min             =  -2.4653260514813E-04
(PID.TID 0000.0001) %MON dynstat_wvel_mean            =   1.1696722888608E-07
(PID.TID 0000.0001) %MON dynstat_wvel_sd              =   1.1462566260566E-04
(PID.TID 0000.0001) %MON dynstat_theta_max            =   2.0577666750521E+01
(PID.TID 0000.0001) %MON dynstat_theta_min            =   1.5473342829226E+01
(PID.TID 0000.0001) %MON dynstat_theta_mean           =   1.8560087189085E+01
(PID.TID 0000.0001) %MON dynstat_theta_sd             =   1.3415873923068E+00
(PID.TID 0000.0001) %MON dynstat_salt_max             =   9.9847458936071E-01
(PID.TID 0000.0001) %MON dynstat_salt_min             =   4.0232701416820E-01
(PID.TID 0000.0001) %MON dynstat_salt_mean            =   7.6803653179950E-01
(PID.TID 0000.0001) %MON dynstat_salt_sd              =   1.9905467242463E-01
(PID.TID 0000.0001) %MON advcfl_uvel_max              =   1.7299565747617E-02
(PID.TID 0000.0001) %MON advcfl_vvel_max              =   1.5061549441348E-02
(PID.TID 0000.0001) %MON advcfl_wvel_max              =   4.4677405327242E-03
(PID.TID 0000.0001) %MON ke_max                       =   6.8027685485849E-03
(PID.TID 0000.0001) %MON ke_mean                      =   1.0171276112909E-03
(PID.TID 0000.0001) // =======================================================
(PID.TID 0000.0001) // End MONITOR dynamic field statistics
(PID.TID 0000.0001) // =======================================================
 cg2d: Sum(rhs),rhsMax =   2.44249065417534E-15  7.47361129510228E-03
(PID.TID 0000.0001)                    cg2d_init_res =    1.26834064132488E-02
(PID.TID 0000.0001)                       cg2d_iters =    29
(PID.TID 0000.0001)                         cg2d_res =    3.33637036555728E-14
(PID.TID 0000.0001) // =======================================================
(PID.TID 0000.0001) // Begin MONITOR dynamic field statistics
(PID.TID 0000.0001) // =======================================================
(PID.TID 0000.0001) %MON time_tsnumber                =                    11
(PID.TID 0000.0001) %MON time_secondsf                =   1.9800000000000E+04
(PID.TID 0000.0001) %MON time_secondsi                =                 19800
(PID.TID 0000.0001) %MON dynstat_eta_max              =   7.2775877338047E-02
(PID.TID 0000.0001) %MON dynstat_eta_min              =  -7.3425925734034E-02
(PID.TID 0000.0001) %MON dynstat_eta_mean             =   2.6169229057374E-05
(PID.TID 0000.0001) %MON dynstat_eta_sd               =   4.9669598362174E-02
(PID.TID 0000.0001) %MON dynstat_uvel_max             =   1.0757749634791E-01
(PID.TID 0000.0001) %MON dynstat_uvel_min             =  -2.6530658331805E-02
(PID.TID 0000.0001) %MON dynstat_uvel_mean            =   2.1532955441878E-02
(PID.TID 0000.0001) %MON dynstat_uvel_sd              =   3.5583529312754E-02
(PID.TID 0000.0001) %MON dynstat_vvel_max             =   6.0040607443154E-02
(PID.TID 0000.0001) %MON dynstat_vvel_min             =  -1.4333359611531E-02
(PID.TID 0000.0001) %MON dynstat_vvel_mean            =   1.2438765405198E-02
(PID.TID 0000.0001) %MON dynstat_vvel_sd              =   2.0018644447756E-02
(PID.TID 0000.0001) %MON dynstat_wvel_max             =   2.2786703040272E-04
(PID.TID 0000.0001) %MON dynstat_wvel_min             =  -2.3299413233363E-04
(PID.TID 0000.0001) %MON dynstat_wvel_mean            =   1.3344564508448E-07
(PID.TID 0000.0001) %MON dynstat_wvel_sd              =   1.0809083958860E-04
(PID.TID 0000.0001) %MON dynstat_theta_max            =   2.0577498293788E+01
(PID.TID 0000.0001) %MON dynstat_theta_min            =   1.5473219130763E+01
(PID.TID 0000.0001) %MON dynstat_theta_mean           =   1.8560178082880E+01
(PID.TID 0000.0001) %MON dynstat_theta_sd             =   1.3416343867985E+00
(PID.TID 0000.0001) %MON dynstat_salt_max             =   9.9833325461183E-01
(PID.TID 0000.0001) %MON dynstat_salt_min             =   4.0295069788356E-01
(PID.TID 0000.0001) %MON dynstat_salt_mean            =   7.6802608823491E-01
(PID.TID 0000.0001) %MON dynstat_salt_sd              =   1.9889850751531E-01
(PID.TID 0000.0001) %MON advcfl_uvel_max              =   1.9363949342624E-02
(PID.TID 0000.0001) %MON advcfl_vvel_max              =   1.3674494987034E-02
(PID.TID 0000.0001) %MON advcfl_wvel_max              =   4.2273303182735E-03
(PID.TID 0000.0001) %MON ke_max                       =   7.5866175646557E-03
(PID.TID 0000.0001) %MON ke_mean                      =   1.1337031917864E-03
(PID.TID 0000.0001) // =======================================================
(PID.TID 0000.0001) // End MONITOR dynamic field statistics
(PID.TID 0000.0001) // =======================================================
 cg2d: Sum(rhs),rhsMax =   1.88737914186277E-15  7.48330015313956E-03
(PID.TID 0000.0001)                    cg2d_init_res =    1.24762399602374E-02
(PID.TID 0000.0001)                       cg2d_iters =    29
(PID.TID 0000.0001)                         cg2d_res =    3.77610055513355E-14
(PID.TID 0000.0001) // =======================================================
(PID.TID 0000.0001) // Begin MONITOR dynamic field statistics
(PID.TID 0000.0001) // =======================================================
(PID.TID 0000.0001) %MON time_tsnumber                =                    12
(PID.TID 0000.0001) %MON time_secondsf                =   2.1600000000000E+04
(PID.TID 0000.0001) %MON time_secondsi                =                 21600
(PID.TID 0000.0001) %MON dynstat_eta_max              =   7.2582701041992E-02
(PID.TID 0000.0001) %MON dynstat_eta_min              =  -7.3322666170028E-02
(PID.TID 0000.0001) %MON dynstat_eta_mean             =   2.9779690829097E-05
(PID.TID 0000.0001) %MON dynstat_eta_sd               =   4.9568701918632E-02
(PID.TID 0000.0001) %MON dynstat_uvel_max             =   1.1771069388632E-01
(PID.TID 0000.0001) %MON dynstat_uvel_min             =  -2.8940517878772E-02
(PID.TID 0000.0001) %MON dynstat_uvel_mean            =   2.3565311555393E-02
(PID.TID 0000.0001) %MON dynstat_uvel_sd              =   3.8924385518247E-02
(PID.TID 0000.0001) %MON dynstat_vvel_max             =   5.1964744810230E-02
(PID.TID 0000.0001) %MON dynstat_vvel_min             =  -1.2287807610169E-02
(PID.TID 0000.0001) %MON dynstat_vvel_mean            =   1.0741746587783E-02
(PID.TID 0000.0001) %MON dynstat_vvel_sd              =   1.7312671063432E-02
(PID.TID 0000.0001) %MON dynstat_wvel_max             =   2.0611844440485E-04
(PID.TID 0000.0001) %MON dynstat_wvel_min             =  -2.1162831208900E-04
(PID.TID 0000.0001) %MON dynstat_wvel_mean            =   1.4419206491574E-07
(PID.TID 0000.0001) %MON dynstat_wvel_sd              =   9.7924933759002E-05
(PID.TID 0000.0001) %MON dynstat_theta_max            =   2.0577336982414E+01
(PID.TID 0000.0001) %MON dynstat_theta_min            =   1.5473110828018E+01
(PID.TID 0000.0001) %MON dynstat_theta_mean           =   1.8560259416108E+01
(PID.TID 0000.0001) %MON dynstat_theta_sd             =   1.3416767092858E+00
(PID.TID 0000.0001) %MON dynstat_salt_max             =   9.9819310989972E-01
(PID.TID 0000.0001) %MON dynstat_salt_min             =   4.0356799407853E-01
(PID.TID 0000.0001) %MON dynstat_salt_mean            =   7.6801569702522E-01
(PID.TID 0000.0001) %MON dynstat_salt_sd              =   1.9874273082340E-01
(PID.TID 0000.0001) %MON advcfl_uvel_max              =   2.1187924899537E-02
(PID.TID 0000.0001) %MON advcfl_vvel_max              =   1.1835184097409E-02
(PID.TID 0000.0001) %MON advcfl_wvel_max              =   3.8474327887987E-03
(PID.TID 0000.0001) %MON ke_max                       =   8.2760318053395E-03
(PID.TID 0000.0001) %MON ke_mean                      =   1.2360773156476E-03
(PID.TID 0000.0001) // =======================================================
(PID.TID 0000.0001) // End MONITOR dynamic field statistics
(PID.TID 0000.0001) // =======================================================
 cg2d: Sum(rhs),rhsMax =   2.77555756156289E-15  7.49457655830921E-03
(PID.TID 0000.0001)                    cg2d_init_res =    1.19798823457449E-02
(PID.TID 0000.0001)                       cg2d_iters =    29
(PID.TID 0000.0001)                         cg2d_res =    4.13048659096810E-14
(PID.TID 0000.0001) // =======================================================
(PID.TID 0000.0001) // Begin MONITOR dynamic field statistics
(PID.TID 0000.0001) // =======================================================
(PID.TID 0000.0001) %MON time_tsnumber                =                    13
(PID.TID 0000.0001) %MON time_secondsf                =   2.3400000000000E+04
(PID.TID 0000.0001) %MON time_secondsi                =                 23400
(PID.TID 0000.0001) %MON dynstat_eta_max              =   7.2414187291243E-02
(PID.TID 0000.0001) %MON dynstat_eta_min              =  -7.3234338638828E-02
(PID.TID 0000.0001) %MON dynstat_eta_mean             =   3.2994388230297E-05
(PID.TID 0000.0001) %MON dynstat_eta_sd               =   4.9481334899717E-02
(PID.TID 0000.0001) %MON dynstat_uvel_max             =   1.2617510535840E-01
(PID.TID 0000.0001) %MON dynstat_uvel_min             =  -3.0929866463859E-02
(PID.TID 0000.0001) %MON dynstat_uvel_mean            =   2.5258816402336E-02
(PID.TID 0000.0001) %MON dynstat_uvel_sd              =   4.1712980810280E-02
(PID.TID 0000.0001) %MON dynstat_vvel_max             =   4.2187915187830E-02
(PID.TID 0000.0001) %MON dynstat_vvel_min             =  -9.8511446861372E-03
(PID.TID 0000.0001) %MON dynstat_vvel_mean            =   8.6912602192301E-03
(PID.TID 0000.0001) %MON dynstat_vvel_sd              =   1.4039061197524E-02
(PID.TID 0000.0001) %MON dynstat_wvel_max             =   1.7759381121911E-04
(PID.TID 0000.0001) %MON dynstat_wvel_min             =  -1.8378515088714E-04
(PID.TID 0000.0001) %MON dynstat_wvel_mean            =   1.4787153604107E-07
(PID.TID 0000.0001) %MON dynstat_wvel_sd              =   8.4498900503592E-05
(PID.TID 0000.0001) %MON dynstat_theta_max            =   2.0577184445502E+01
(PID.TID 0000.0001) %MON dynstat_theta_min            =   1.5473021489408E+01
(PID.TID 0000.0001) %MON dynstat_theta_mean           =   1.8560328945460E+01
(PID.TID 0000.0001) %MON dynstat_theta_sd             =   1.3417132316183E+00
(PID.TID 0000.0001) %MON dynstat_salt_max             =   9.9805477250656E-01
(PID.TID 0000.0001) %MON dynstat_salt_min             =   4.0417988097220E-01
(PID.TID 0000.0001) %MON dynstat_salt_mean            =   7.6800534694508E-01
(PID.TID 0000.0001) %MON dynstat_salt_sd              =   1.9858735000825E-01
(PID.TID 0000.0001) %MON advcfl_uvel_max              =   2.2711518964513E-02
(PID.TID 0000.0001) %MON advcfl_vvel_max              =   9.6084709884991E-03
(PID.TID 0000.0001) %MON advcfl_wvel_max              =   3.3582112189806E-03
(PID.TID 0000.0001) %MON ke_max                       =   8.8483584942446E-03
(PID.TID 0000.0001) %MON ke_mean                      =   1.3209095984368E-03
(PID.TID 0000.0001) // =======================================================
(PID.TID 0000.0001) // End MONITOR dynamic field statistics
(PID.TID 0000.0001) // =======================================================
 cg2d: Sum(rhs),rhsMax =   3.99680288865056E-15  7.50688979680283E-03
(PID.TID 0000.0001)                    cg2d_init_res =    1.13411791634702E-02
(PID.TID 0000.0001)                       cg2d_iters =    29
(PID.TID 0000.0001)                         cg2d_res =    4.37453180136639E-14
(PID.TID 0000.0001) // =======================================================
(PID.TID 0000.0001) // Begin MONITOR dynamic field statistics
(PID.TID 0000.0001) // =======================================================
(PID.TID 0000.0001) %MON time_tsnumber                =                    14
(PID.TID 0000.0001) %MON time_secondsf                =   2.5200000000000E+04
(PID.TID 0000.0001) %MON time_secondsi                =                 25200
(PID.TID 0000.0001) %MON dynstat_eta_max              =   7.2276209530528E-02
(PID.TID 0000.0001) %MON dynstat_eta_min              =  -7.3162437829156E-02
(PID.TID 0000.0001) %MON dynstat_eta_mean             =   3.5637160770249E-05
(PID.TID 0000.0001) %MON dynstat_eta_sd               =   4.9410029567203E-02
(PID.TID 0000.0001) %MON dynstat_uvel_max             =   1.3269598295109E-01
(PID.TID 0000.0001) %MON dynstat_uvel_min             =  -3.2432748635655E-02
(PID.TID 0000.0001) %MON dynstat_uvel_mean            =   2.6558189948447E-02
(PID.TID 0000.0001) %MON dynstat_uvel_sd              =   4.3858543697656E-02
(PID.TID 0000.0001) %MON dynstat_vvel_max             =   3.1050431963838E-02
(PID.TID 0000.0001) %MON dynstat_vvel_min             =  -7.1284427824050E-03
(PID.TID 0000.0001) %MON dynstat_vvel_mean            =   6.3589987669479E-03
(PID.TID 0000.0001) %MON dynstat_vvel_sd              =   1.0312127846327E-02
(PID.TID 0000.0001) %MON dynstat_wvel_max             =   1.4401880230373E-04
(PID.TID 0000.0001) %MON dynstat_wvel_min             =  -1.5028090168294E-04
(PID.TID 0000.0001) %MON dynstat_wvel_mean            =   1.4381064065031E-07
(PID.TID 0000.0001) %MON dynstat_wvel_sd              =   6.8289400719079E-05
(PID.TID 0000.0001) %MON dynstat_theta_max            =   2.0577042025685E+01
(PID.TID 0000.0001) %MON dynstat_theta_min            =   1.5472954014158E+01
(PID.TID 0000.0001) %MON dynstat_theta_mean           =   1.8560384844750E+01
(PID.TID 0000.0001) %MON dynstat_theta_sd             =   1.3417430316140E+00
(PID.TID 0000.0001) %MON dynstat_salt_max             =   9.9791885832930E-01
(PID.TID 0000.0001) %MON dynstat_salt_min             =   4.0478718360549E-01
(PID.TID 0000.0001) %MON dynstat_salt_mean            =   7.6799502427836E-01
(PID.TID 0000.0001) %MON dynstat_salt_sd              =   1.9843237229612E-01
(PID.TID 0000.0001) %MON advcfl_uvel_max              =   2.3885276931195E-02
(PID.TID 0000.0001) %MON advcfl_vvel_max              =   7.0718634323738E-03
(PID.TID 0000.0001) %MON advcfl_wvel_max              =   2.7614380052992E-03
(PID.TID 0000.0001) %MON ke_max                       =   9.2850542988945E-03
(PID.TID 0000.0001) %MON ke_mean                      =   1.3854757088425E-03
(PID.TID 0000.0001) // =======================================================
(PID.TID 0000.0001) // End MONITOR dynamic field statistics
(PID.TID 0000.0001) // =======================================================
 cg2d: Sum(rhs),rhsMax =   3.55271367880050E-15  7.51969580108373E-03
(PID.TID 0000.0001)                    cg2d_init_res =    1.07182463462329E-02
(PID.TID 0000.0001)                       cg2d_iters =    29
(PID.TID 0000.0001)                         cg2d_res =    4.52679889234366E-14
(PID.TID 0000.0001) // =======================================================
(PID.TID 0000.0001) // Begin MONITOR dynamic field statistics
(PID.TID 0000.0001) // =======================================================
(PID.TID 0000.0001) %MON time_tsnumber                =                    15
(PID.TID 0000.0001) %MON time_secondsf                =   2.7000000000000E+04
(PID.TID 0000.0001) %MON time_secondsi                =                 27000
(PID.TID 0000.0001) %MON dynstat_eta_max              =   7.2173434068442E-02
(PID.TID 0000.0001) %MON dynstat_eta_min              =  -7.3107885608927E-02
(PID.TID 0000.0001) %MON dynstat_eta_mean             =   3.7557758794549E-05
(PID.TID 0000.0001) %MON dynstat_eta_sd               =   4.9356707729254E-02
(PID.TID 0000.0001) %MON dynstat_uvel_max             =   1.3706583644298E-01
(PID.TID 0000.0001) %MON dynstat_uvel_min             =  -3.3400390530102E-02
(PID.TID 0000.0001) %MON dynstat_uvel_mean            =   2.7421851901154E-02
(PID.TID 0000.0001) %MON dynstat_uvel_sd              =   4.5292575669030E-02
(PID.TID 0000.0001) %MON dynstat_vvel_max             =   1.8936297509214E-02
(PID.TID 0000.0001) %MON dynstat_vvel_min             =  -4.1786799408851E-03
(PID.TID 0000.0001) %MON dynstat_vvel_mean            =   3.8257236532910E-03
(PID.TID 0000.0001) %MON dynstat_vvel_sd              =   6.2614689832704E-03
(PID.TID 0000.0001) %MON dynstat_wvel_max             =   1.0590739553647E-04
(PID.TID 0000.0001) %MON dynstat_wvel_min             =  -1.1196738633145E-04
(PID.TID 0000.0001) %MON dynstat_wvel_mean            =   1.3206062716975E-07
(PID.TID 0000.0001) %MON dynstat_wvel_sd              =   4.9866242046231E-05
(PID.TID 0000.0001) %MON dynstat_theta_max            =   2.0576910725949E+01
(PID.TID 0000.0001) %MON dynstat_theta_min            =   1.5472910543288E+01
(PID.TID 0000.0001) %MON dynstat_theta_mean           =   1.8560425754733E+01
(PID.TID 0000.0001) %MON dynstat_theta_sd             =   1.3417654184639E+00
(PID.TID 0000.0001) %MON dynstat_salt_max             =   9.9778591486018E-01
(PID.TID 0000.0001) %MON dynstat_salt_min             =   4.0539056277031E-01
(PID.TID 0000.0001) %MON dynstat_salt_mean            =   7.6798471378820E-01
(PID.TID 0000.0001) %MON dynstat_salt_sd              =   1.9827780291246E-01
(PID.TID 0000.0001) %MON advcfl_uvel_max              =   2.4671850559736E-02
(PID.TID 0000.0001) %MON advcfl_vvel_max              =   4.3128195464694E-03
(PID.TID 0000.0001) %MON advcfl_wvel_max              =   2.0780357953235E-03
(PID.TID 0000.0001) %MON ke_max                       =   9.5722090721119E-03
(PID.TID 0000.0001) %MON ke_mean                      =   1.4277403420020E-03
(PID.TID 0000.0001) // =======================================================
(PID.TID 0000.0001) // End MONITOR dynamic field statistics
(PID.TID 0000.0001) // =======================================================
 cg2d: Sum(rhs),rhsMax =  -1.33226762955019E-15  7.53254863027910E-03
(PID.TID 0000.0001)                    cg2d_init_res =    1.02942891641136E-02
(PID.TID 0000.0001)                       cg2d_iters =    29
(PID.TID 0000.0001)                         cg2d_res =    4.58426607561599E-14
(PID.TID 0000.0001) // =======================================================
(PID.TID 0000.0001) // Begin MONITOR dynamic field statistics
(PID.TID 0000.0001) // =======================================================
(PID.TID 0000.0001) %MON time_tsnumber                =                    16
(PID.TID 0000.0001) %MON time_secondsf                =   2.8800000000000E+04
(PID.TID 0000.0001) %MON time_secondsi                =                 28800
(PID.TID 0000.0001) %MON dynstat_eta_max              =   7.2109260133331E-02
(PID.TID 0000.0001) %MON dynstat_eta_min              =  -7.3071313469801E-02
(PID.TID 0000.0001) %MON dynstat_eta_mean             =   3.8645567242043E-05
(PID.TID 0000.0001) %MON dynstat_eta_sd               =   4.9322753138799E-02
(PID.TID 0000.0001) %MON dynstat_uvel_max             =   1.3915095017095E-01
(PID.TID 0000.0001) %MON dynstat_uvel_min             =  -3.3802775340877E-02
(PID.TID 0000.0001) %MON dynstat_uvel_mean            =   2.7823237151940E-02
(PID.TID 0000.0001) %MON dynstat_uvel_sd              =   4.5971021134565E-02
(PID.TID 0000.0001) %MON dynstat_vvel_max             =   6.2847469422651E-03
(PID.TID 0000.0001) %MON dynstat_vvel_min             =  -1.3023074437597E-03
(PID.TID 0000.0001) %MON dynstat_vvel_mean            =   1.1784901916715E-03
(PID.TID 0000.0001) %MON dynstat_vvel_sd              =   2.0348237798378E-03
(PID.TID 0000.0001) %MON dynstat_wvel_max             =   6.4743449435210E-05
(PID.TID 0000.0001) %MON dynstat_wvel_min             =  -7.0257001479052E-05
(PID.TID 0000.0001) %MON dynstat_wvel_mean            =   1.1336917134039E-07
(PID.TID 0000.0001) %MON dynstat_wvel_sd              =   2.9878205291891E-05
(PID.TID 0000.0001) %MON dynstat_theta_max            =   2.0576791174923E+01
(PID.TID 0000.0001) %MON dynstat_theta_min            =   1.5472892396323E+01
(PID.TID 0000.0001) %MON dynstat_theta_mean           =   1.8560450819137E+01
(PID.TID 0000.0001) %MON dynstat_theta_sd             =   1.3417799523344E+00
(PID.TID 0000.0001) %MON dynstat_salt_max             =   9.9765636230186E-01
(PID.TID 0000.0001) %MON dynstat_salt_min             =   4.0599050881979E-01
(PID.TID 0000.0001) %MON dynstat_salt_mean            =   7.6797439966292E-01
(PID.TID 0000.0001) %MON dynstat_salt_sd              =   1.9812364375300E-01
(PID.TID 0000.0001) %MON advcfl_uvel_max              =   2.5047171030771E-02
(PID.TID 0000.0001) %MON advcfl_vvel_max              =   1.4257365580578E-03
(PID.TID 0000.0001) %MON advcfl_wvel_max              =   1.3318640254849E-03
(PID.TID 0000.0001) %MON ke_max                       =   9.7009230084414E-03
(PID.TID 0000.0001) %MON ke_mean                      =   1.4464091453420E-03
(PID.TID 0000.0001) // =======================================================
(PID.TID 0000.0001) // End MONITOR dynamic field statistics
(PID.TID 0000.0001) // =======================================================
 cg2d: Sum(rhs),rhsMax =   7.77156117237610E-16  7.54514380112536E-03
(PID.TID 0000.0001)                    cg2d_init_res =    1.02225973897167E-02
(PID.TID 0000.0001)                       cg2d_iters =    29
(PID.TID 0000.0001)                         cg2d_res =    4.52401837454594E-14
(PID.TID 0000.0001) // =======================================================
(PID.TID 0000.0001) // Begin MONITOR dynamic field statistics
(PID.TID 0000.0001) // =======================================================
(PID.TID 0000.0001) %MON time_tsnumber                =                    17
(PID.TID 0000.0001) %MON time_secondsf                =   3.0600000000000E+04
(PID.TID 0000.0001) %MON time_secondsi                =                 30600
(PID.TID 0000.0001) %MON dynstat_eta_max              =   7.2085533722523E-02
(PID.TID 0000.0001) %MON dynstat_eta_min              =  -7.3053033224815E-02
(PID.TID 0000.0001) %MON dynstat_eta_mean             =   3.8839849144104E-05
(PID.TID 0000.0001) %MON dynstat_eta_sd               =   4.9308901957684E-02
(PID.TID 0000.0001) %MON dynstat_uvel_max             =   1.3889538493218E-01
(PID.TID 0000.0001) %MON dynstat_uvel_min             =  -3.3629552558077E-02
(PID.TID 0000.0001) %MON dynstat_uvel_mean            =   2.7751601033976E-02
(PID.TID 0000.0001) %MON dynstat_uvel_sd              =   4.5875599658030E-02
(PID.TID 0000.0001) %MON dynstat_vvel_max             =   2.2271174110479E-03
(PID.TID 0000.0001) %MON dynstat_vvel_min             =  -6.5871080633849E-03
(PID.TID 0000.0001) %MON dynstat_vvel_mean            =  -1.4923355334569E-03
(PID.TID 0000.0001) %MON dynstat_vvel_sd              =   2.2822273242062E-03
(PID.TID 0000.0001) %MON dynstat_wvel_max             =   2.2457743062444E-05
(PID.TID 0000.0001) %MON dynstat_wvel_min             =  -2.7344382637477E-05
(PID.TID 0000.0001) %MON dynstat_wvel_mean            =   8.9066855826034E-08
(PID.TID 0000.0001) %MON dynstat_wvel_sd              =   9.1111083911318E-06
(PID.TID 0000.0001) %MON dynstat_theta_max            =   2.0576683607789E+01
(PID.TID 0000.0001) %MON dynstat_theta_min            =   1.5472900034481E+01
(PID.TID 0000.0001) %MON dynstat_theta_mean           =   1.8560459705854E+01
(PID.TID 0000.0001) %MON dynstat_theta_sd             =   1.3417864565871E+00
(PID.TID 0000.0001) %MON dynstat_salt_max             =   9.9753044964467E-01
(PID.TID 0000.0001) %MON dynstat_salt_min             =   4.0658734016009E-01
(PID.TID 0000.0001) %MON dynstat_salt_mean            =   7.6796406634627E-01
(PID.TID 0000.0001) %MON dynstat_salt_sd              =   1.9796989245177E-01
(PID.TID 0000.0001) %MON advcfl_uvel_max              =   2.5001169287793E-02
(PID.TID 0000.0001) %MON advcfl_vvel_max              =   1.5002409207317E-03
(PID.TID 0000.0001) %MON advcfl_wvel_max              =   5.4885020279699E-04
(PID.TID 0000.0001) %MON ke_max                       =   9.6675297623128E-03
(PID.TID 0000.0001) %MON ke_mean                      =   1.4409588859521E-03
(PID.TID 0000.0001) // =======================================================
(PID.TID 0000.0001) // End MONITOR dynamic field statistics
(PID.TID 0000.0001) // =======================================================
 cg2d: Sum(rhs),rhsMax =   8.88178419700125E-16  7.55734333502044E-03
(PID.TID 0000.0001)                    cg2d_init_res =    1.05449343002676E-02
(PID.TID 0000.0001)                       cg2d_iters =    29
(PID.TID 0000.0001)                         cg2d_res =    4.33887251601057E-14
(PID.TID 0000.0001) // =======================================================
(PID.TID 0000.0001) // Begin MONITOR dynamic field statistics
(PID.TID 0000.0001) // =======================================================
(PID.TID 0000.0001) %MON time_tsnumber                =                    18
(PID.TID 0000.0001) %MON time_secondsf                =   3.2400000000000E+04
(PID.TID 0000.0001) %MON time_secondsi                =                 32400
(PID.TID 0000.0001) %MON dynstat_eta_max              =   7.2102410076706E-02
(PID.TID 0000.0001) %MON dynstat_eta_min              =  -7.3053042036680E-02
(PID.TID 0000.0001) %MON dynstat_eta_mean             =   3.8135372028965E-05
(PID.TID 0000.0001) %MON dynstat_eta_sd               =   4.9315196392903E-02
(PID.TID 0000.0001) %MON dynstat_uvel_max             =   1.3632234266998E-01
(PID.TID 0000.0001) %MON dynstat_uvel_min             =  -3.2890265076902E-02
(PID.TID 0000.0001) %MON dynstat_uvel_mean            =   2.7212283555650E-02
(PID.TID 0000.0001) %MON dynstat_uvel_sd              =   4.5014260227299E-02
(PID.TID 0000.0001) %MON dynstat_vvel_max             =   5.2667529998499E-03
(PID.TID 0000.0001) %MON dynstat_vvel_min             =  -1.9079409903157E-02
(PID.TID 0000.0001) %MON dynstat_vvel_mean            =  -4.0961582943511E-03
(PID.TID 0000.0001) %MON dynstat_vvel_sd              =   6.4501967843824E-03
(PID.TID 0000.0001) %MON dynstat_wvel_max             =   2.7724028078738E-05
(PID.TID 0000.0001) %MON dynstat_wvel_min             =  -2.8259517089947E-05
(PID.TID 0000.0001) %MON dynstat_wvel_mean            =   6.0886449647646E-08
(PID.TID 0000.0001) %MON dynstat_wvel_sd              =   1.2298098766461E-05
(PID.TID 0000.0001) %MON dynstat_theta_max            =   2.0576587860694E+01
(PID.TID 0000.0001) %MON dynstat_theta_min            =   1.5472933050710E+01
(PID.TID 0000.0001) %MON dynstat_theta_mean           =   1.8560452612718E+01
(PID.TID 0000.0001) %MON dynstat_theta_sd             =   1.3417850215920E+00
(PID.TID 0000.0001) %MON dynstat_salt_max             =   9.9740823047147E-01
(PID.TID 0000.0001) %MON dynstat_salt_min             =   4.0718120619225E-01
(PID.TID 0000.0001) %MON dynstat_salt_mean            =   7.6795369919347E-01
(PID.TID 0000.0001) %MON dynstat_salt_sd              =   1.9781654195174E-01
(PID.TID 0000.0001) %MON advcfl_uvel_max              =   2.4538021680597E-02
(PID.TID 0000.0001) %MON advcfl_vvel_max              =   4.3454139820840E-03
(PID.TID 0000.0001) %MON advcfl_wvel_max              =   5.0265970958413E-04
(PID.TID 0000.0001) %MON ke_max                       =   9.4736652486160E-03
(PID.TID 0000.0001) %MON ke_mean                      =   1.4116461055441E-03
(PID.TID 0000.0001) // =======================================================
(PID.TID 0000.0001) // End MONITOR dynamic field statistics
(PID.TID 0000.0001) // =======================================================
 cg2d: Sum(rhs),rhsMax =   4.44089209850063E-16  7.56917793734356E-03
(PID.TID 0000.0001)                    cg2d_init_res =    1.11649273860821E-02
(PID.TID 0000.0001)                       cg2d_iters =    29
(PID.TID 0000.0001)                         cg2d_res =    4.03804069723242E-14
(PID.TID 0000.0001) // =======================================================
(PID.TID 0000.0001) // Begin MONITOR dynamic field statistics
(PID.TID 0000.0001) // =======================================================
(PID.TID 0000.0001) %MON time_tsnumber                =                    19
(PID.TID 0000.0001) %MON time_secondsf                =   3.4200000000000E+04
(PID.TID 0000.0001) %MON time_secondsi                =                 34200
(PID.TID 0000.0001) %MON dynstat_eta_max              =   7.2158353968731E-02
(PID.TID 0000.0001) %MON dynstat_eta_min              =  -7.3071034954460E-02
(PID.TID 0000.0001) %MON dynstat_eta_mean             =   3.6582792440022E-05
(PID.TID 0000.0001) %MON dynstat_eta_sd               =   4.9340988833733E-02
(PID.TID 0000.0001) %MON dynstat_uvel_max             =   1.3153286890737E-01
(PID.TID 0000.0001) %MON dynstat_uvel_min             =  -3.1613891408302E-02
(PID.TID 0000.0001) %MON dynstat_uvel_mean            =   2.6226427015497E-02
(PID.TID 0000.0001) %MON dynstat_uvel_sd              =   4.3420747920250E-02
(PID.TID 0000.0001) %MON dynstat_vvel_max             =   8.1073651536255E-03
(PID.TID 0000.0001) %MON dynstat_vvel_min             =  -3.0851010709649E-02
(PID.TID 0000.0001) %MON dynstat_vvel_mean            =  -6.5452232817964E-03
(PID.TID 0000.0001) %MON dynstat_vvel_sd              =   1.0383765333082E-02
(PID.TID 0000.0001) %MON dynstat_wvel_max             =   7.0288856329125E-05
(PID.TID 0000.0001) %MON dynstat_wvel_min             =  -6.9703961638476E-05
(PID.TID 0000.0001) %MON dynstat_wvel_mean            =   3.0741344565245E-08
(PID.TID 0000.0001) %MON dynstat_wvel_sd              =   3.2743887021483E-05
(PID.TID 0000.0001) %MON dynstat_theta_max            =   2.0576503378761E+01
(PID.TID 0000.0001) %MON dynstat_theta_min            =   1.5472990186806E+01
(PID.TID 0000.0001) %MON dynstat_theta_mean           =   1.8560430257999E+01
(PID.TID 0000.0001) %MON dynstat_theta_sd             =   1.3417760000973E+00
(PID.TID 0000.0001) %MON dynstat_salt_max             =   9.9728956062048E-01
(PID.TID 0000.0001) %MON dynstat_salt_min             =   4.0777209442432E-01
(PID.TID 0000.0001) %MON dynstat_salt_mean            =   7.6794328491432E-01
(PID.TID 0000.0001) %MON dynstat_salt_sd              =   1.9766358062099E-01
(PID.TID 0000.0001) %MON advcfl_uvel_max              =   2.3675916403326E-02
(PID.TID 0000.0001) %MON advcfl_vvel_max              =   7.0264444225262E-03
(PID.TID 0000.0001) %MON advcfl_wvel_max              =   1.2656890626122E-03
(PID.TID 0000.0001) %MON ke_max                       =   9.1261838233491E-03
(PID.TID 0000.0001) %MON ke_mean                      =   1.3594946363158E-03
(PID.TID 0000.0001) // =======================================================
(PID.TID 0000.0001) // End MONITOR dynamic field statistics
(PID.TID 0000.0001) // =======================================================
 cg2d: Sum(rhs),rhsMax =   1.11022302462516E-16  7.58082358738418E-03
(PID.TID 0000.0001)                    cg2d_init_res =    1.19042893123508E-02
(PID.TID 0000.0001)                       cg2d_iters =    29
(PID.TID 0000.0001)                         cg2d_res =    3.61990773213604E-14
(PID.TID 0000.0001) // =======================================================
(PID.TID 0000.0001) // Begin MONITOR dynamic field statistics
(PID.TID 0000.0001) // =======================================================
(PID.TID 0000.0001) %MON time_tsnumber                =                    20
(PID.TID 0000.0001) %MON time_secondsf                =   3.6000000000000E+04
(PID.TID 0000.0001) %MON time_secondsi                =                 36000
(PID.TID 0000.0001) %MON dynstat_eta_max              =   7.2250239616153E-02
(PID.TID 0000.0001) %MON dynstat_eta_min              =  -7.3106385976227E-02
(PID.TID 0000.0001) %MON dynstat_eta_mean             =   3.4283781362478E-05
(PID.TID 0000.0001) %MON dynstat_eta_sd               =   4.9384970317537E-02
(PID.TID 0000.0001) %MON dynstat_uvel_max             =   1.2470195541362E-01
(PID.TID 0000.0001) %MON dynstat_uvel_min             =  -2.9847722350533E-02
(PID.TID 0000.0001) %MON dynstat_uvel_mean            =   2.4830160658934E-02
(PID.TID 0000.0001) %MON dynstat_uvel_sd              =   4.1153303294235E-02
(PID.TID 0000.0001) %MON dynstat_vvel_max             =   1.0653357935399E-02
(PID.TID 0000.0001) %MON dynstat_vvel_min             =  -4.1514367300363E-02
(PID.TID 0000.0001) %MON dynstat_vvel_mean            =  -8.7575696080166E-03
(PID.TID 0000.0001) %MON dynstat_vvel_sd              =   1.3944345584379E-02
(PID.TID 0000.0001) %MON dynstat_wvel_max             =   1.1022124540250E-04
(PID.TID 0000.0001) %MON dynstat_wvel_min             =  -1.0967597245622E-04
(PID.TID 0000.0001) %MON dynstat_wvel_mean            =   4.9412354289754E-10
(PID.TID 0000.0001) %MON dynstat_wvel_sd              =   5.2023743424085E-05
(PID.TID 0000.0001) %MON dynstat_theta_max            =   2.0576429237616E+01
(PID.TID 0000.0001) %MON dynstat_theta_min            =   1.5473069377241E+01
(PID.TID 0000.0001) %MON dynstat_theta_mean           =   1.8560393855950E+01
(PID.TID 0000.0001) %MON dynstat_theta_sd             =   1.3417599944047E+00
(PID.TID 0000.0001) %MON dynstat_salt_max             =   9.9717411701426E-01
(PID.TID 0000.0001) %MON dynstat_salt_min             =   4.0835984146266E-01
(PID.TID 0000.0001) %MON dynstat_salt_mean            =   7.6793281179846E-01
(PID.TID 0000.0001) %MON dynstat_salt_sd              =   1.9751099288750E-01
(PID.TID 0000.0001) %MON advcfl_uvel_max              =   2.2446351974452E-02
(PID.TID 0000.0001) %MON advcfl_vvel_max              =   9.4550676902494E-03
(PID.TID 0000.0001) %MON advcfl_wvel_max              =   1.9945007983237E-03
(PID.TID 0000.0001) %MON ke_max                       =   8.6369243462001E-03
(PID.TID 0000.0001) %MON ke_mean                      =   1.2862623022278E-03
(PID.TID 0000.0001) // =======================================================
(PID.TID 0000.0001) // End MONITOR dynamic field statistics
(PID.TID 0000.0001) // =======================================================
(PID.TID 0000.0001)   Seconds in section "ALL                [THE_MODEL_MAIN]":
(PID.TID 0000.0001)           User time:  0.790000021
(PID.TID 0000.0001)         System time:  0.0399999991
(PID.TID 0000.0001)     Wall clock time:  0.821009994
(PID.TID 0000.0001)          No. starts: 1
(PID.TID 0000.0001)           No. stops: 1
(PID.TID 0000.0001)   Seconds in section "INITIALISE_FIXED   [THE_MODEL_MAIN]":
(PID.TID 0000.0001)           User time:  0.0799999982
(PID.TID 0000.0001)         System time:  0.00999999978
(PID.TID 0000.0001)     Wall clock time:  0.0821249485
(PID.TID 0000.0001)          No. starts: 1
(PID.TID 0000.0001)           No. stops: 1
(PID.TID 0000.0001)   Seconds in section "THE_MAIN_LOOP      [THE_MODEL_MAIN]":
(PID.TID 0000.0001)           User time:  0.689999983
(PID.TID 0000.0001)         System time:  0.0199999996
(PID.TID 0000.0001)     Wall clock time:  0.708794951
(PID.TID 0000.0001)          No. starts: 1
(PID.TID 0000.0001)           No. stops: 1
(PID.TID 0000.0001)   Seconds in section "INITIALISE_VARIA    [THE_MAIN_LOOP]":
(PID.TID 0000.0001)           User time:  0.0100000054
(PID.TID 0000.0001)         System time:  0.
(PID.TID 0000.0001)     Wall clock time:  0.0144660473
(PID.TID 0000.0001)          No. starts: 1
(PID.TID 0000.0001)           No. stops: 1
(PID.TID 0000.0001)   Seconds in section "WRITE_STATE         [THE_MAIN_LOOP]":
(PID.TID 0000.0001)           User time:  0.
(PID.TID 0000.0001)         System time:  0.00999999978
(PID.TID 0000.0001)     Wall clock time:  0.012155056
(PID.TID 0000.0001)          No. starts: 1
(PID.TID 0000.0001)           No. stops: 1
(PID.TID 0000.0001)   Seconds in section "MONITOR             [THE_MAIN_LOOP]":
(PID.TID 0000.0001)           User time:  0.00999999791
(PID.TID 0000.0001)         System time:  0.
(PID.TID 0000.0001)     Wall clock time:  0.00245404243
(PID.TID 0000.0001)          No. starts: 1
(PID.TID 0000.0001)           No. stops: 1
(PID.TID 0000.0001)   Seconds in section "MAIN LOOP           [THE_MAIN_LOOP]":
(PID.TID 0000.0001)           User time:  0.669999979
(PID.TID 0000.0001)         System time:  0.00999999978
(PID.TID 0000.0001)     Wall clock time:  0.679421902
(PID.TID 0000.0001)          No. starts: 1
(PID.TID 0000.0001)           No. stops: 1
(PID.TID 0000.0001)   Seconds in section "EXTERNAL_FIELDS_LOAD[THE_MAIN_LOOP]":
(PID.TID 0000.0001)           User time:  0.
(PID.TID 0000.0001)         System time:  0.
(PID.TID 0000.0001)     Wall clock time:  0.00111925602
(PID.TID 0000.0001)          No. starts: 20
(PID.TID 0000.0001)           No. stops: 20
(PID.TID 0000.0001)   Seconds in section "DYNAMICS            [THE_MAIN_LOOP]":
(PID.TID 0000.0001)           User time:  0.459999844
(PID.TID 0000.0001)         System time:  0.
(PID.TID 0000.0001)     Wall clock time:  0.481411695
(PID.TID 0000.0001)          No. starts: 20
(PID.TID 0000.0001)           No. stops: 20
(PID.TID 0000.0001)   Seconds in section "SOLVE_FOR_PRESSURE  [THE_MAIN_LOOP]":
(PID.TID 0000.0001)           User time:  0.0700000525
(PID.TID 0000.0001)         System time:  0.
(PID.TID 0000.0001)     Wall clock time:  0.0440433025
(PID.TID 0000.0001)          No. starts: 20
(PID.TID 0000.0001)           No. stops: 20
(PID.TID 0000.0001)   Seconds in section "THE_CORRECTION_STEP [THE_MAIN_LOOP]":
(PID.TID 0000.0001)           User time:  0.0700000152
(PID.TID 0000.0001)         System time:  0.
(PID.TID 0000.0001)     Wall clock time:  0.0451978445
(PID.TID 0000.0001)          No. starts: 20
(PID.TID 0000.0001)           No. stops: 20
(PID.TID 0000.0001)   Seconds in section "BLOCKING_EXCHANGES  [THE_MAIN_LOOP]":
(PID.TID 0000.0001)           User time:  0.
(PID.TID 0000.0001)         System time:  0.
(PID.TID 0000.0001)     Wall clock time:  0.0322240591
(PID.TID 0000.0001)          No. starts: 20
(PID.TID 0000.0001)           No. stops: 20
(PID.TID 0000.0001)   Seconds in section "DO_THE_MODEL_IO     [THE_MAIN_LOOP]":
(PID.TID 0000.0001)           User time:  0.00999999046
(PID.TID 0000.0001)         System time:  0.00999999978
(PID.TID 0000.0001)     Wall clock time:  0.0129451752
(PID.TID 0000.0001)          No. starts: 20
(PID.TID 0000.0001)           No. stops: 20
(PID.TID 0000.0001)   Seconds in section "WRITE_CHECKPOINT    [THE_MAIN_LOOP]":
(PID.TID 0000.0001)           User time:  0.
(PID.TID 0000.0001)         System time:  0.
(PID.TID 0000.0001)     Wall clock time:  0.00112318993
(PID.TID 0000.0001)          No. starts: 20
(PID.TID 0000.0001)           No. stops: 20
(PID.TID 0000.0001)   Seconds in section "WRITE_CHECKPOINT   [THE_MODEL_MAIN]":
(PID.TID 0000.0001)           User time:  0.0200000405
(PID.TID 0000.0001)         System time:  0.00999999978
(PID.TID 0000.0001)     Wall clock time:  0.0298349857
(PID.TID 0000.0001)          No. starts: 1
(PID.TID 0000.0001)           No. stops: 1
(PID.TID 0000.0001) // ======================================================
(PID.TID 0000.0001) // Tile <-> Tile communication statistics
(PID.TID 0000.0001) // ======================================================
(PID.TID 0000.0001) // o Tile number: 000001
(PID.TID 0000.0001) //         No. X exchanges =              0
(PID.TID 0000.0001) //            Max. X spins =              0
(PID.TID 0000.0001) //            Min. X spins =     1000000000
(PID.TID 0000.0001) //          Total. X spins =              0
(PID.TID 0000.0001) //            Avg. X spins =       0.00E+00
(PID.TID 0000.0001) //         No. Y exchanges =              0
(PID.TID 0000.0001) //            Max. Y spins =              0
(PID.TID 0000.0001) //            Min. Y spins =     1000000000
(PID.TID 0000.0001) //          Total. Y spins =              0
(PID.TID 0000.0001) //            Avg. Y spins =       0.00E+00
(PID.TID 0000.0001) // o Thread number: 000001
(PID.TID 0000.0001) //            No. barriers =          11140
(PID.TID 0000.0001) //      Max. barrier spins =              1
(PID.TID 0000.0001) //      Min. barrier spins =              1
(PID.TID 0000.0001) //     Total barrier spins =          11140
(PID.TID 0000.0001) //      Avg. barrier spins =       1.00E+00
