(PID.TID 0000.0001) 
(PID.TID 0000.0001) // ======================================================
(PID.TID 0000.0001) //                      MITgcm UV
(PID.TID 0000.0001) //                      =========
(PID.TID 0000.0001) // ======================================================
(PID.TID 0000.0001) // execution environment starting up...
(PID.TID 0000.0001) 
(PID.TID 0000.0001) // MITgcmUV version:  checkpoint62r
(PID.TID 0000.0001) // Build user:        jmc
(PID.TID 0000.0001) // Build host:        baudelaire
(PID.TID 0000.0001) // Build date:        Thu Feb 10 18:44:44 EST 2011
(PID.TID 0000.0001) 
(PID.TID 0000.0001) // =======================================================
(PID.TID 0000.0001) // Execution Environment parameter file "eedata"
(PID.TID 0000.0001) // =======================================================
(PID.TID 0000.0001) ># Example "eedata" file
(PID.TID 0000.0001) ># Lines beginning "#" are comments
(PID.TID 0000.0001) ># nTx - No. threads per process in X
(PID.TID 0000.0001) ># nTy - No. threads per process in Y
(PID.TID 0000.0001) > &EEPARMS
(PID.TID 0000.0001) > nTx=1,
(PID.TID 0000.0001) > nTy=1,
(PID.TID 0000.0001) > /
(PID.TID 0000.0001) ># Note: Some systems use & as the
(PID.TID 0000.0001) ># namelist terminator. Other systems
(PID.TID 0000.0001) ># use a / character (as shown here).
(PID.TID 0000.0001) 
(PID.TID 0000.0001) // =======================================================
(PID.TID 0000.0001) // Computational Grid Specification ( see files "SIZE.h" )
(PID.TID 0000.0001) //                                  ( and "eedata"       )
(PID.TID 0000.0001) // =======================================================
(PID.TID 0000.0001)      nPx =    1 ; /* No. processes in X */
(PID.TID 0000.0001)      nPy =    1 ; /* No. processes in Y */
(PID.TID 0000.0001)      nSx =    1 ; /* No. tiles in X per process */
(PID.TID 0000.0001)      nSy =    2 ; /* No. tiles in Y per process */
(PID.TID 0000.0001)      sNx =    1 ; /* Tile size in X */
(PID.TID 0000.0001)      sNy =   16 ; /* Tile size in Y */
(PID.TID 0000.0001)      OLx =    3 ; /* Tile overlap distance in X */
(PID.TID 0000.0001)      OLy =    3 ; /* Tile overlap distance in Y */
(PID.TID 0000.0001)      nTx =    1 ; /* No. threads in X per process */
(PID.TID 0000.0001)      nTy =    1 ; /* No. threads in Y per process */
(PID.TID 0000.0001)       Nr =   25 ; /* No. levels in the vertical   */
(PID.TID 0000.0001)       Nx =    1 ; /* Total domain size in X ( = nPx*nSx*sNx ) */
(PID.TID 0000.0001)       Ny =   32 ; /* Total domain size in Y ( = nPy*nSy*sNy ) */
(PID.TID 0000.0001)   nTiles =    2 ; /* Total no. tiles per process ( = nSx*nSy ) */
(PID.TID 0000.0001)   nProcs =    1 ; /* Total no. processes ( = nPx*nPy ) */
(PID.TID 0000.0001) nThreads =    1 ; /* Total no. threads per process ( = nTx*nTy ) */
(PID.TID 0000.0001) usingMPI =    F ; /* Flag used to control whether MPI is in use */
(PID.TID 0000.0001)                   /*  note: To execute a program with MPI calls */
(PID.TID 0000.0001)                   /*  it must be launched appropriately e.g     */
(PID.TID 0000.0001)                   /*  "mpirun -np 64 ......"                    */
(PID.TID 0000.0001) useCoupler=    F ;/* Flag used to control communications with   */
(PID.TID 0000.0001)                   /*  other model components, through a coupler */
(PID.TID 0000.0001) printMapIncludesZeros=    F ; /* print zeros in Std.Output maps */
(PID.TID 0000.0001) maxLengthPrt1D=   65 /* maxLength of 1D array printed to StdOut */
(PID.TID 0000.0001) 
(PID.TID 0000.0001) // ======================================================
(PID.TID 0000.0001) // Mapping of tiles to threads
(PID.TID 0000.0001) // ======================================================
(PID.TID 0000.0001) // -o- Thread   1, tiles (   1:   1,   1:   2)
(PID.TID 0000.0001) 
(PID.TID 0000.0001) // ======================================================
(PID.TID 0000.0001) // Tile <-> Tile connectvity table
(PID.TID 0000.0001) // ======================================================
(PID.TID 0000.0001) // Tile number: 000001 (process no. = 000001)
(PID.TID 0000.0001) //        WEST: Tile = 000001, Process = 000001, Comm = put
(PID.TID 0000.0001) //                bi = 000001, bj = 000001
(PID.TID 0000.0001) //        EAST: Tile = 000001, Process = 000001, Comm = put
(PID.TID 0000.0001) //                bi = 000001, bj = 000001
(PID.TID 0000.0001) //       SOUTH: Tile = 000002, Process = 000001, Comm = put
(PID.TID 0000.0001) //                bi = 000001, bj = 000002
(PID.TID 0000.0001) //       NORTH: Tile = 000002, Process = 000001, Comm = put
(PID.TID 0000.0001) //                bi = 000001, bj = 000002
(PID.TID 0000.0001) // Tile number: 000002 (process no. = 000001)
(PID.TID 0000.0001) //        WEST: Tile = 000002, Process = 000001, Comm = put
(PID.TID 0000.0001) //                bi = 000001, bj = 000002
(PID.TID 0000.0001) //        EAST: Tile = 000002, Process = 000001, Comm = put
(PID.TID 0000.0001) //                bi = 000001, bj = 000002
(PID.TID 0000.0001) //       SOUTH: Tile = 000001, Process = 000001, Comm = put
(PID.TID 0000.0001) //                bi = 000001, bj = 000001
(PID.TID 0000.0001) //       NORTH: Tile = 000001, Process = 000001, Comm = put
(PID.TID 0000.0001) //                bi = 000001, bj = 000001
(PID.TID 0000.0001) 
(PID.TID 0000.0001) DEBUG_MSG: ENTERED S/R THE_MODEL_MAIN
(PID.TID 0000.0001) DEBUG_MSG: CALLING S/R INITIALISE_FIXED
(PID.TID 0000.0001)  INI_PARMS: opening model parameter file "data"
(PID.TID 0000.0001)  OPEN_COPY_DATA_FILE: opening file data
(PID.TID 0000.0001) // =======================================================
(PID.TID 0000.0001) // Parameter file "data"
(PID.TID 0000.0001) // =======================================================
(PID.TID 0000.0001) ># ====================
(PID.TID 0000.0001) ># | Model parameters |
(PID.TID 0000.0001) ># ====================
(PID.TID 0000.0001) >#
(PID.TID 0000.0001) ># Continuous equation parameters
(PID.TID 0000.0001) > &PARM01
(PID.TID 0000.0001) > tRef=29., 28., 27., 26., 25., 24., 23., 22., 21., 20., 19., 18.,
(PID.TID 0000.0001) > 17., 16., 15., 14., 13., 12., 11., 10., 09., 07., 08., 06., 05.,
(PID.TID 0000.0001) > viscAr=2.E-4,
(PID.TID 0000.0001) > viscA4=12.E5,
(PID.TID 0000.0001) > no_slip_sides=.FALSE.,
(PID.TID 0000.0001) > no_slip_bottom=.TRUE.,
(PID.TID 0000.0001) > bottomDragLinear=1.E-3,
(PID.TID 0000.0001) >#bottomDragQuadratic=1.E-3,
(PID.TID 0000.0001) >#diffKrT=2.E-5,
(PID.TID 0000.0001) >#diffKrS=2.E-5,
(PID.TID 0000.0001) > diffKrNrT=6*1.E-2, 19*2.E-5,
(PID.TID 0000.0001) > diffKrNrS=6*1.E-2, 19*2.E-5,
(PID.TID 0000.0001) > diffKhT=0.E3,
(PID.TID 0000.0001) > diffKhS=0.E3,
(PID.TID 0000.0001) > beta=0.E-11,
(PID.TID 0000.0001) > f0  =1.E-4,
(PID.TID 0000.0001) > gravity=9.81,
(PID.TID 0000.0001) > eosType='LINEAR',
(PID.TID 0000.0001) > tAlpha=2.E-4,
(PID.TID 0000.0001) > sBeta =0.E-4,
(PID.TID 0000.0001) > rhoConst=1000.,
(PID.TID 0000.0001) > rhoNil=1000.,
(PID.TID 0000.0001) > rigidLid=.FALSE.,
(PID.TID 0000.0001) > implicitFreeSurface=.TRUE.,
(PID.TID 0000.0001) > implicitDiffusion=.TRUE.,
(PID.TID 0000.0001) > hFacMin=.1,
(PID.TID 0000.0001) > hMixCriteria=-0.1,
(PID.TID 0000.0001) >#hMixCriteria=1.5,
(PID.TID 0000.0001) > readBinaryPrec=64,
(PID.TID 0000.0001) > writeBinaryPrec=64,
(PID.TID 0000.0001) > /
(PID.TID 0000.0001) >
(PID.TID 0000.0001) ># Elliptic solver parameters
(PID.TID 0000.0001) > &PARM02
(PID.TID 0000.0001) > cg2dMaxIters=1000,
(PID.TID 0000.0001) > cg2dTargetResidual=1.E-13,
(PID.TID 0000.0001) > /
(PID.TID 0000.0001) >
(PID.TID 0000.0001) ># Time stepping parameters
(PID.TID 0000.0001) > &PARM03
(PID.TID 0000.0001) > startTime=0.,
(PID.TID 0000.0001) >#nTimeSteps=8641,
(PID.TID 0000.0001) > nTimeSteps=25,
(PID.TID 0000.0001) > deltaT=3600.,
(PID.TID 0000.0001) > cAdjFreq=-1.,
(PID.TID 0000.0001) > abEps=0.1,
(PID.TID 0000.0001) > pChkptFreq=0.,
(PID.TID 0000.0001) > chkptFreq =0.,
(PID.TID 0000.0001) > dumpFreq=2592000.,
(PID.TID 0000.0001) >#monitorFreq=864000.,
(PID.TID 0000.0001) > monitorSelect=1,
(PID.TID 0000.0001) > monitorFreq=1.,
(PID.TID 0000.0001) > /
(PID.TID 0000.0001) >
(PID.TID 0000.0001) ># Gridding parameters
(PID.TID 0000.0001) > &PARM04
(PID.TID 0000.0001) > usingCartesianGrid=.TRUE.,
(PID.TID 0000.0001) > delR= 10*20.,  24.,  29.,  35.,  42.,  51.,  61.,  74.,
(PID.TID 0000.0001) >          89., 107., 128., 155., 186., 224., 270., 325.,
(PID.TID 0000.0001) > delX=1*1.E5,
(PID.TID 0000.0001) > delY=32*1.E5,
(PID.TID 0000.0001) > /
(PID.TID 0000.0001) >
(PID.TID 0000.0001) ># Input datasets
(PID.TID 0000.0001) > &PARM05
(PID.TID 0000.0001) > hydrogThetaFile='t_ini.bin',
(PID.TID 0000.0001) > hydrogSaltFile ='s_ini.bin',
(PID.TID 0000.0001) > uVelInitFile   ='u_ini.bin',
(PID.TID 0000.0001) > bathyFile      ='topo_slp.bin',
(PID.TID 0000.0001) > /
(PID.TID 0000.0001) 
(PID.TID 0000.0001)  INI_PARMS ; starts to read PARM01
(PID.TID 0000.0001)  INI_PARMS ; read PARM01 : OK
(PID.TID 0000.0001)  INI_PARMS ; starts to read PARM02
(PID.TID 0000.0001)  INI_PARMS ; read PARM02 : OK
(PID.TID 0000.0001)  INI_PARMS ; starts to read PARM03
(PID.TID 0000.0001)  INI_PARMS ; read PARM03 : OK
(PID.TID 0000.0001)  INI_PARMS ; starts to read PARM04
(PID.TID 0000.0001)  INI_PARMS ; read PARM04 : OK
(PID.TID 0000.0001)  INI_PARMS ; starts to read PARM05
(PID.TID 0000.0001)  INI_PARMS ; read PARM05 : OK
(PID.TID 0000.0001)  INI_PARMS: finished reading file "data"
(PID.TID 0000.0001)  PACKAGES_BOOT: opening data.pkg
(PID.TID 0000.0001)  OPEN_COPY_DATA_FILE: opening file data.pkg
(PID.TID 0000.0001) // =======================================================
(PID.TID 0000.0001) // Parameter file "data.pkg"
(PID.TID 0000.0001) // =======================================================
(PID.TID 0000.0001) ># Packages
(PID.TID 0000.0001) > &PACKAGES
(PID.TID 0000.0001) >  useGMRedi=.TRUE.,
(PID.TID 0000.0001) >  useKPP=.FALSE.,
(PID.TID 0000.0001) >  useDiagnostics=.TRUE.,
(PID.TID 0000.0001) > /
(PID.TID 0000.0001) 
(PID.TID 0000.0001)  PACKAGES_BOOT: finished reading data.pkg
(PID.TID 0000.0001)  GM_READPARMS: opening data.gmredi
(PID.TID 0000.0001)  OPEN_COPY_DATA_FILE: opening file data.gmredi
(PID.TID 0000.0001) // =======================================================
(PID.TID 0000.0001) // Parameter file "data.gmredi"
(PID.TID 0000.0001) // =======================================================
(PID.TID 0000.0001) ># GM-Redi parameters
(PID.TID 0000.0001) > &GM_PARM01
(PID.TID 0000.0001) > GM_AdvForm=.TRUE.,
(PID.TID 0000.0001) > GM_useBVP = .TRUE.,
(PID.TID 0000.0001) >#GM_BVP_modeNumber=5,
(PID.TID 0000.0001) > GM_background_K=1000.,
(PID.TID 0000.0001) > GM_taper_scheme='linear',
(PID.TID 0000.0001) > GM_maxSlope    =1.E-02,
(PID.TID 0000.0001) > GM_facTrL2dz   = 0.,
(PID.TID 0000.0001) >#GM_facTrL2ML   = 5.,
(PID.TID 0000.0001) >#GM_maxTransLay = 500.,
(PID.TID 0000.0001) > /
(PID.TID 0000.0001) >
(PID.TID 0000.0001) 
(PID.TID 0000.0001)  GM_READPARMS: finished reading data.gmredi
(PID.TID 0000.0001)  DIAGNOSTICS_READPARMS: opening data.diagnostics
(PID.TID 0000.0001)  OPEN_COPY_DATA_FILE: opening file data.diagnostics
(PID.TID 0000.0001) // =======================================================
(PID.TID 0000.0001) // Parameter file "data.diagnostics"
(PID.TID 0000.0001) // =======================================================
(PID.TID 0000.0001) ># Diagnostic Package Choices
(PID.TID 0000.0001) >#--------------------
(PID.TID 0000.0001) >#  dumpAtLast (logical): always write output at the end of simulation (default=F)
(PID.TID 0000.0001) >#  diag_mnc   (logical): write to NetCDF files (default=useMNC)
(PID.TID 0000.0001) >#--for each output-stream:
(PID.TID 0000.0001) >#  fileName(n) : prefix of the output file name (max 80c long) for outp.stream n
(PID.TID 0000.0001) >#  frequency(n):< 0 : write snap-shot output every |frequency| seconds
(PID.TID 0000.0001) >#               > 0 : write time-average output every frequency seconds
(PID.TID 0000.0001) >#  timePhase(n)     : write at time = timePhase + multiple of |frequency|
(PID.TID 0000.0001) >#    averagingFreq  : frequency (in s) for periodic averaging interval
(PID.TID 0000.0001) >#    averagingPhase : phase     (in s) for periodic averaging interval
(PID.TID 0000.0001) >#    repeatCycle    : number of averaging intervals in 1 cycle
(PID.TID 0000.0001) >#  levels(:,n) : list of levels to write to file (Notes: declared as REAL)
(PID.TID 0000.0001) >#                when this entry is missing, select all common levels of this list
(PID.TID 0000.0001) >#  fields(:,n) : list of selected diagnostics fields (8.c) in outp.stream n
(PID.TID 0000.0001) >#                (see "available_diagnostics.log" file for the full list of diags)
(PID.TID 0000.0001) >#  missing_value(n) : missing value for real-type fields in output file "n"
(PID.TID 0000.0001) >#  fileFlags(n)     : specific code (8c string) for output file "n"
(PID.TID 0000.0001) >#--------------------
(PID.TID 0000.0001) > &DIAGNOSTICS_LIST
(PID.TID 0000.0001) ># diag_mnc     = .FALSE.,
(PID.TID 0000.0001) >  fields(1:8 ,1) = 'ETAN    ','ETANSQ  ','DETADT2 ','PHIBOT  ','PHIBOTSQ',
(PID.TID 0000.0001) >                   'MXLDEPTH','GM_BVPcW','GM_BVPcS',
(PID.TID 0000.0001) >#                  'GM_hTrsL','GM_baseS','GM_rLamb',
(PID.TID 0000.0001) >#                  'GM_VisbK',
(PID.TID 0000.0001) >   levels(1,1) = 1.,
(PID.TID 0000.0001) >   fileName(1) = 'surfDiag',
(PID.TID 0000.0001) >  frequency(1) = -86400.,
(PID.TID 0000.0001) >  timePhase(1) = 0.,
(PID.TID 0000.0001) >
(PID.TID 0000.0001) >  fields(1:7,2)  = 'UVEL    ','VVEL    ','WVEL    ','PHIHYD  ',
(PID.TID 0000.0001) >                   'THETA   ','THETASQ ','UVELSQ  ',
(PID.TID 0000.0001) ># do not specify levels => all levels are selected
(PID.TID 0000.0001) >#  fileName(2) = 'dynDiag',
(PID.TID 0000.0001) >  frequency(2) = -864000.,
(PID.TID 0000.0001) >  timePhase(2) = 0.,
(PID.TID 0000.0001) >
(PID.TID 0000.0001) >  fields(1:8,3)  = 'DRHODR  ','RHOAnoma',
(PID.TID 0000.0001) >                   'GM_Kwy  ','GM_Kwz  ','GM_Kvy  ',
(PID.TID 0000.0001) >                   'THETA   ',
(PID.TID 0000.0001) >                   'GM_PsiY ','GM_Kvz  ',
(PID.TID 0000.0001) >   fileName(3) = 'oceDiag',
(PID.TID 0000.0001) >  frequency(3) = -86400.,
(PID.TID 0000.0001) >  timePhase(3) = 0.,
(PID.TID 0000.0001) >
(PID.TID 0000.0001) >  fields(1:5,4)  = 'ADVy_TH ','ADVr_TH ',
(PID.TID 0000.0001) >                   'DFyE_TH ','DFrE_TH ',
(PID.TID 0000.0001) >                   'DFrI_TH ',
(PID.TID 0000.0001) >#                  'ADVx_SLT',
(PID.TID 0000.0001) >#  fileName(4) = 'flxDiag',
(PID.TID 0000.0001) >  frequency(4) = 1728000.,
(PID.TID 0000.0001) > /
(PID.TID 0000.0001) >
(PID.TID 0000.0001) >#--------------------
(PID.TID 0000.0001) ># Parameter for Diagnostics of per level statistics:
(PID.TID 0000.0001) >#--------------------
(PID.TID 0000.0001) >#  diagSt_mnc (logical): write stat-diags to NetCDF files (default=diag_mnc)
(PID.TID 0000.0001) >#  diagSt_regMaskFile : file containing the region-mask to read-in
(PID.TID 0000.0001) >#  nSetRegMskFile   : number of region-mask sets within the region-mask file
(PID.TID 0000.0001) >#  set_regMask(i)   : region-mask set-index that identifies the region "i"
(PID.TID 0000.0001) >#  val_regMask(i)   : region "i" identifier value in the region mask
(PID.TID 0000.0001) >#--for each output-stream:
(PID.TID 0000.0001) >#  stat_fName(n) : prefix of the output file name (max 80c long) for outp.stream n
(PID.TID 0000.0001) >#  stat_freq(n):< 0 : write snap-shot output every |stat_freq| seconds
(PID.TID 0000.0001) >#               > 0 : write time-average output every stat_freq seconds
(PID.TID 0000.0001) >#  stat_phase(n)    : write at time = stat_phase + multiple of |stat_freq|
(PID.TID 0000.0001) >#  stat_region(:,n) : list of "regions" (default: 1 region only=global)
(PID.TID 0000.0001) >#  stat_fields(:,n) : list of selected diagnostics fields (8.c) in outp.stream n
(PID.TID 0000.0001) >#                (see "available_diagnostics.log" file for the full list of diags)
(PID.TID 0000.0001) >#--------------------
(PID.TID 0000.0001) > &DIAG_STATIS_PARMS
(PID.TID 0000.0001) > stat_fields(1:11,1) = 'ETAN    ','UVEL    ','VVEL    ','WVEL    ', 'THETA   ',
(PID.TID 0000.0001) >                       'MXLDEPTH',
(PID.TID 0000.0001) >                       'GM_Kwy  ','GM_Kwz  ','GM_Kvy  ',
(PID.TID 0000.0001) >                       'GM_PsiY ','GM_Kvz  ',
(PID.TID 0000.0001) >#                      'GM_Kvz  ',
(PID.TID 0000.0001) >#                      'GM_hTrsL','GM_baseS','GM_rLamb',
(PID.TID 0000.0001) >  stat_fName(1) = 'dynStDiag',
(PID.TID 0000.0001) >   stat_freq(1) = 18000.,
(PID.TID 0000.0001) ># stat_phase(1) = 0.,
(PID.TID 0000.0001) > /
(PID.TID 0000.0001) 
(PID.TID 0000.0001) S/R DIAGNOSTICS_READPARMS, read namelist "diagnostics_list": start
(PID.TID 0000.0001) S/R DIAGNOSTICS_READPARMS, read namelist "diagnostics_list": OK
(PID.TID 0000.0001) S/R DIAGNOSTICS_READPARMS, read namelist "DIAG_STATIS_PARMS": start
(PID.TID 0000.0001) S/R DIAGNOSTICS_READPARMS, read namelist "DIAG_STATIS_PARMS": OK
(PID.TID 0000.0001) -----------------------------------------------------
(PID.TID 0000.0001)  DIAGNOSTICS_READPARMS: active diagnostics summary:
(PID.TID 0000.0001) -----------------------------------------------------
(PID.TID 0000.0001) Creating Output Stream: surfDiag
(PID.TID 0000.0001) Output Frequency:     -86400.000000 ; Phase:           0.000000
(PID.TID 0000.0001)  Averaging Freq.:          0.000000 , Phase:           0.000000 , Cycle:   1
(PID.TID 0000.0001)  missing value:  1.234567000000E+05 ; for integers:   123456789
(PID.TID 0000.0001)  Levels:       1.
(PID.TID 0000.0001)  Fields:    ETAN     ETANSQ   DETADT2  PHIBOT   PHIBOTSQ MXLDEPTH GM_BVPcW GM_BVPcS
(PID.TID 0000.0001) Creating Output Stream: oceDiag
(PID.TID 0000.0001) Output Frequency:     -86400.000000 ; Phase:           0.000000
(PID.TID 0000.0001)  Averaging Freq.:          0.000000 , Phase:           0.000000 , Cycle:   1
(PID.TID 0000.0001)  missing value:  1.234567000000E+05 ; for integers:   123456789
(PID.TID 0000.0001)  Levels:    will be set later
(PID.TID 0000.0001)  Fields:    DRHODR   RHOAnoma GM_Kwy   GM_Kwz   GM_Kvy   THETA    GM_PsiY  GM_Kvz
(PID.TID 0000.0001) -----------------------------------------------------
(PID.TID 0000.0001)  DIAGNOSTICS_READPARMS: statistics diags. summary:
(PID.TID 0000.0001) Creating Stats. Output Stream: dynStDiag
(PID.TID 0000.0001) Output Frequency:      18000.000000 ; Phase:           0.000000
(PID.TID 0000.0001)  Regions:   0
(PID.TID 0000.0001)  Fields:    ETAN     UVEL     VVEL     WVEL     THETA    MXLDEPTH GM_Kwy   GM_Kwz   GM_Kvy   GM_PsiY
(PID.TID 0000.0001)  Fields:    GM_Kvz
(PID.TID 0000.0001) -----------------------------------------------------
(PID.TID 0000.0001) 
(PID.TID 0000.0001) SET_PARMS: done
(PID.TID 0000.0001) Enter INI_VERTICAL_GRID: setInterFDr=    T ; setCenterDr=    F
(PID.TID 0000.0001) %MON XC_max                       =   5.0000000000000E+04
(PID.TID 0000.0001) %MON XC_min                       =   5.0000000000000E+04
(PID.TID 0000.0001) %MON XC_mean                      =   5.0000000000000E+04
(PID.TID 0000.0001) %MON XC_sd                        =   0.0000000000000E+00
(PID.TID 0000.0001) %MON XG_max                       =   0.0000000000000E+00
(PID.TID 0000.0001) %MON XG_min                       =   0.0000000000000E+00
(PID.TID 0000.0001) %MON XG_mean                      =   0.0000000000000E+00
(PID.TID 0000.0001) %MON XG_sd                        =   0.0000000000000E+00
(PID.TID 0000.0001) %MON DXC_max                      =   1.0000000000000E+05
(PID.TID 0000.0001) %MON DXC_min                      =   1.0000000000000E+05
(PID.TID 0000.0001) %MON DXC_mean                     =   1.0000000000000E+05
(PID.TID 0000.0001) %MON DXC_sd                       =   0.0000000000000E+00
(PID.TID 0000.0001) %MON DXF_max                      =   1.0000000000000E+05
(PID.TID 0000.0001) %MON DXF_min                      =   1.0000000000000E+05
(PID.TID 0000.0001) %MON DXF_mean                     =   1.0000000000000E+05
(PID.TID 0000.0001) %MON DXF_sd                       =   0.0000000000000E+00
(PID.TID 0000.0001) %MON DXG_max                      =   1.0000000000000E+05
(PID.TID 0000.0001) %MON DXG_min                      =   1.0000000000000E+05
(PID.TID 0000.0001) %MON DXG_mean                     =   1.0000000000000E+05
(PID.TID 0000.0001) %MON DXG_sd                       =   0.0000000000000E+00
(PID.TID 0000.0001) %MON DXV_max                      =   1.0000000000000E+05
(PID.TID 0000.0001) %MON DXV_min                      =   1.0000000000000E+05
(PID.TID 0000.0001) %MON DXV_mean                     =   1.0000000000000E+05
(PID.TID 0000.0001) %MON DXV_sd                       =   0.0000000000000E+00
(PID.TID 0000.0001) %MON YC_max                       =   3.1500000000000E+06
(PID.TID 0000.0001) %MON YC_min                       =   5.0000000000000E+04
(PID.TID 0000.0001) %MON YC_mean                      =   1.6000000000000E+06
(PID.TID 0000.0001) %MON YC_sd                        =   9.2330926563097E+05
(PID.TID 0000.0001) %MON YG_max                       =   3.1000000000000E+06
(PID.TID 0000.0001) %MON YG_min                       =   0.0000000000000E+00
(PID.TID 0000.0001) %MON YG_mean                      =   1.5500000000000E+06
(PID.TID 0000.0001) %MON YG_sd                        =   9.2330926563097E+05
(PID.TID 0000.0001) %MON DYC_max                      =   1.0000000000000E+05
(PID.TID 0000.0001) %MON DYC_min                      =   1.0000000000000E+05
(PID.TID 0000.0001) %MON DYC_mean                     =   1.0000000000000E+05
(PID.TID 0000.0001) %MON DYC_sd                       =   0.0000000000000E+00
(PID.TID 0000.0001) %MON DYF_max                      =   1.0000000000000E+05
(PID.TID 0000.0001) %MON DYF_min                      =   1.0000000000000E+05
(PID.TID 0000.0001) %MON DYF_mean                     =   1.0000000000000E+05
(PID.TID 0000.0001) %MON DYF_sd                       =   0.0000000000000E+00
(PID.TID 0000.0001) %MON DYG_max                      =   1.0000000000000E+05
(PID.TID 0000.0001) %MON DYG_min                      =   1.0000000000000E+05
(PID.TID 0000.0001) %MON DYG_mean                     =   1.0000000000000E+05
(PID.TID 0000.0001) %MON DYG_sd                       =   0.0000000000000E+00
(PID.TID 0000.0001) %MON DYU_max                      =   1.0000000000000E+05
(PID.TID 0000.0001) %MON DYU_min                      =   1.0000000000000E+05
(PID.TID 0000.0001) %MON DYU_mean                     =   1.0000000000000E+05
(PID.TID 0000.0001) %MON DYU_sd                       =   0.0000000000000E+00
(PID.TID 0000.0001) %MON RA_max                       =   1.0000000000000E+10
(PID.TID 0000.0001) %MON RA_min                       =   1.0000000000000E+10
(PID.TID 0000.0001) %MON RA_mean                      =   1.0000000000000E+10
(PID.TID 0000.0001) %MON RA_sd                        =   0.0000000000000E+00
(PID.TID 0000.0001) %MON RAW_max                      =   1.0000000000000E+10
(PID.TID 0000.0001) %MON RAW_min                      =   1.0000000000000E+10
(PID.TID 0000.0001) %MON RAW_mean                     =   1.0000000000000E+10
(PID.TID 0000.0001) %MON RAW_sd                       =   0.0000000000000E+00
(PID.TID 0000.0001) %MON RAS_max                      =   1.0000000000000E+10
(PID.TID 0000.0001) %MON RAS_min                      =   1.0000000000000E+10
(PID.TID 0000.0001) %MON RAS_mean                     =   1.0000000000000E+10
(PID.TID 0000.0001) %MON RAS_sd                       =   0.0000000000000E+00
(PID.TID 0000.0001) %MON RAZ_max                      =   1.0000000000000E+10
(PID.TID 0000.0001) %MON RAZ_min                      =   1.0000000000000E+10
(PID.TID 0000.0001) %MON RAZ_mean                     =   1.0000000000000E+10
(PID.TID 0000.0001) %MON RAZ_sd                       =   0.0000000000000E+00
(PID.TID 0000.0001) %MON AngleCS_max                  =   1.0000000000000E+00
(PID.TID 0000.0001) %MON AngleCS_min                  =   1.0000000000000E+00
(PID.TID 0000.0001) %MON AngleCS_mean                 =   1.0000000000000E+00
(PID.TID 0000.0001) %MON AngleCS_sd                   =   0.0000000000000E+00
(PID.TID 0000.0001) %MON AngleSN_max                  =   0.0000000000000E+00
(PID.TID 0000.0001) %MON AngleSN_min                  =   0.0000000000000E+00
(PID.TID 0000.0001) %MON AngleSN_mean                 =   0.0000000000000E+00
(PID.TID 0000.0001) %MON AngleSN_sd                   =   0.0000000000000E+00
(PID.TID 0000.0001)  MDS_READ_FIELD: opening global file: topo_slp.bin
(PID.TID 0000.0001) // =======================================================
(PID.TID 0000.0001) // Field Model R_low (ini_masks_etc) at iteration          1
(PID.TID 0000.0001) // CMIN =         -1.999737326001201E+03
(PID.TID 0000.0001) // CMAX =         -1.400262673998799E+03
(PID.TID 0000.0001) // CINT =          2.220276488897786E+01
(PID.TID 0000.0001) // SYMBOLS (CMIN->CMAX): -abcdefghijklmnopqrstuvwxyz+
(PID.TID 0000.0001) //                  0.0: .
(PID.TID 0000.0001) // RANGE I (Lo:Hi:Step):(    -2:     4:     1)
(PID.TID 0000.0001) // RANGE J (Lo:Hi:Step):(    35:    -2:    -1)
(PID.TID 0000.0001) // RANGE K (Lo:Hi:Step):(   1:   1:   1)
(PID.TID 0000.0001) // =======================================================
(PID.TID 0000.0001) K =   1
(PID.TID 0000.0001) //
(PID.TID 0000.0001) // |--J--|2101234
(PID.TID 0000.0001) //     35 -------
(PID.TID 0000.0001) //     34 -------
(PID.TID 0000.0001) //     33 .......
(PID.TID 0000.0001) //     32 .......
(PID.TID 0000.0001) //     31 +++++++
(PID.TID 0000.0001) //     30 +++++++
(PID.TID 0000.0001) //     29 +++++++
(PID.TID 0000.0001) //     28 +++++++
(PID.TID 0000.0001) //     27 +++++++
(PID.TID 0000.0001) //     26 +++++++
(PID.TID 0000.0001) //     25 +++++++
(PID.TID 0000.0001) //     24 +++++++
(PID.TID 0000.0001) //     23 +++++++
(PID.TID 0000.0001) //     22 zzzzzzz
(PID.TID 0000.0001) //     21 yyyyyyy
(PID.TID 0000.0001) //     20 wwwwwww
(PID.TID 0000.0001) //     19 uuuuuuu
(PID.TID 0000.0001) //     18 sssssss
(PID.TID 0000.0001) //     17 ooooooo
(PID.TID 0000.0001) //     16 lllllll
(PID.TID 0000.0001) //     15 hhhhhhh
(PID.TID 0000.0001) //     14 fffffff
(PID.TID 0000.0001) //     19 uuuuuuu
(PID.TID 0000.0001) //     18 sssssss
(PID.TID 0000.0001) //     17 ooooooo
(PID.TID 0000.0001) //     16 lllllll
(PID.TID 0000.0001) //     15 hhhhhhh
(PID.TID 0000.0001) //     14 fffffff
(PID.TID 0000.0001) //     13 ddddddd
(PID.TID 0000.0001) //     12 bbbbbbb
(PID.TID 0000.0001) //     11 aaaaaaa
(PID.TID 0000.0001) //     10 aaaaaaa
(PID.TID 0000.0001) //      9 -------
(PID.TID 0000.0001) //      8 -------
(PID.TID 0000.0001) //      7 -------
(PID.TID 0000.0001) //      6 -------
(PID.TID 0000.0001) //      5 -------
(PID.TID 0000.0001) //      4 -------
(PID.TID 0000.0001) //      3 -------
(PID.TID 0000.0001) //      2 -------
(PID.TID 0000.0001) //      1 .......
(PID.TID 0000.0001) //      0 .......
(PID.TID 0000.0001) //     -1 +++++++
(PID.TID 0000.0001) //     -2 +++++++
(PID.TID 0000.0001) // =======================================================
(PID.TID 0000.0001) // END OF FIELD                                          =
(PID.TID 0000.0001) // =======================================================
(PID.TID 0000.0001) 
(PID.TID 0000.0001) // =======================================================
(PID.TID 0000.0001) // Field Model Ro_surf (ini_masks_etc) at iteration          1
(PID.TID 0000.0001) // CMIN =          1.000000000000000E+32
(PID.TID 0000.0001) // CMAX =         -1.000000000000000E+32
(PID.TID 0000.0001) // CINT =          0.000000000000000E+00
(PID.TID 0000.0001) // SYMBOLS (CMIN->CMAX): -abcdefghijklmnopqrstuvwxyz+
(PID.TID 0000.0001) //                  0.0: .
(PID.TID 0000.0001) // RANGE I (Lo:Hi:Step):(    -2:     4:     1)
(PID.TID 0000.0001) // RANGE J (Lo:Hi:Step):(    35:    -2:    -1)
(PID.TID 0000.0001) // RANGE K (Lo:Hi:Step):(   1:   1:   1)
(PID.TID 0000.0001) // =======================================================
(PID.TID 0000.0001) // =======================================================
(PID.TID 0000.0001) // END OF FIELD                                          =
(PID.TID 0000.0001) // =======================================================
(PID.TID 0000.0001) 
(PID.TID 0000.0001) // =======================================================
(PID.TID 0000.0001) // Field hFacC at iteration          1
(PID.TID 0000.0001) // CMIN =          1.000000000000000E+00
(PID.TID 0000.0001) // CMAX =          1.000000000000000E+00
(PID.TID 0000.0001) // CINT =          0.000000000000000E+00
(PID.TID 0000.0001) // SYMBOLS (CMIN->CMAX): -abcdefghijklmnopqrstuvwxyz+
(PID.TID 0000.0001) //                  0.0: .
(PID.TID 0000.0001) // RANGE I (Lo:Hi:Step):(    -2:     4:     1)
(PID.TID 0000.0001) // RANGE J (Lo:Hi:Step):(    35:    -2:    -1)
(PID.TID 0000.0001) // RANGE K (Lo:Hi:Step):(   1:   1:   1)
(PID.TID 0000.0001) // =======================================================
(PID.TID 0000.0001) // =======================================================
(PID.TID 0000.0001) // END OF FIELD                                          =
(PID.TID 0000.0001) // =======================================================
(PID.TID 0000.0001) 
(PID.TID 0000.0001) // =======================================================
(PID.TID 0000.0001) // Field hFacW at iteration          1
(PID.TID 0000.0001) // CMIN =          1.000000000000000E+00
(PID.TID 0000.0001) // CMAX =          1.000000000000000E+00
(PID.TID 0000.0001) // CINT =          0.000000000000000E+00
(PID.TID 0000.0001) // SYMBOLS (CMIN->CMAX): -abcdefghijklmnopqrstuvwxyz+
(PID.TID 0000.0001) //                  0.0: .
(PID.TID 0000.0001) // RANGE I (Lo:Hi:Step):(    -2:     4:     1)
(PID.TID 0000.0001) // RANGE J (Lo:Hi:Step):(    35:    -2:    -1)
(PID.TID 0000.0001) // RANGE K (Lo:Hi:Step):(   1:   1:   1)
(PID.TID 0000.0001) // =======================================================
(PID.TID 0000.0001) // =======================================================
(PID.TID 0000.0001) // END OF FIELD                                          =
(PID.TID 0000.0001) // =======================================================
(PID.TID 0000.0001) 
(PID.TID 0000.0001) // =======================================================
(PID.TID 0000.0001) // Field hFacS at iteration          1
(PID.TID 0000.0001) // CMIN =          1.000000000000000E+00
(PID.TID 0000.0001) // CMAX =          1.000000000000000E+00
(PID.TID 0000.0001) // CINT =          0.000000000000000E+00
(PID.TID 0000.0001) // SYMBOLS (CMIN->CMAX): -abcdefghijklmnopqrstuvwxyz+
(PID.TID 0000.0001) //                  0.0: .
(PID.TID 0000.0001) // RANGE I (Lo:Hi:Step):(    -2:     4:     1)
(PID.TID 0000.0001) // RANGE J (Lo:Hi:Step):(    35:    -2:    -1)
(PID.TID 0000.0001) // RANGE K (Lo:Hi:Step):(   1:   1:   1)
(PID.TID 0000.0001) // =======================================================
(PID.TID 0000.0001) // =======================================================
(PID.TID 0000.0001) // END OF FIELD                                          =
(PID.TID 0000.0001) // =======================================================
(PID.TID 0000.0001) 
(PID.TID 0000.0001) GAD_INIT_FIXED: GAD_OlMinSize=  1  0  1
(PID.TID 0000.0001) 
(PID.TID 0000.0001) // ===================================
(PID.TID 0000.0001) // GAD parameters :
(PID.TID 0000.0001) // ===================================
(PID.TID 0000.0001) tempAdvScheme =   /* Temp. Horiz.Advection scheme selector */
(PID.TID 0000.0001)                       2
(PID.TID 0000.0001)     ;
(PID.TID 0000.0001) tempVertAdvScheme =   /* Temp. Vert. Advection scheme selector */
(PID.TID 0000.0001)                       2
(PID.TID 0000.0001)     ;
(PID.TID 0000.0001) tempMultiDimAdvec =   /* use Muti-Dim Advec method for Temp */
(PID.TID 0000.0001)                   F
(PID.TID 0000.0001)     ;
(PID.TID 0000.0001) tempSOM_Advection = /* use 2nd Order Moment Advection for Temp */
(PID.TID 0000.0001)                   F
(PID.TID 0000.0001)     ;
(PID.TID 0000.0001) AdamsBashforthGt = /* apply Adams-Bashforth extrapolation on Gt */
(PID.TID 0000.0001)                   T
(PID.TID 0000.0001)     ;
(PID.TID 0000.0001) AdamsBashforth_T = /* apply Adams-Bashforth extrapolation on Temp */
(PID.TID 0000.0001)                   F
(PID.TID 0000.0001)     ;
(PID.TID 0000.0001) saltAdvScheme =   /* Salt. Horiz.advection scheme selector */
(PID.TID 0000.0001)                       2
(PID.TID 0000.0001)     ;
(PID.TID 0000.0001) saltVertAdvScheme =   /* Salt. Vert. Advection scheme selector */
(PID.TID 0000.0001)                       2
(PID.TID 0000.0001)     ;
(PID.TID 0000.0001) saltMultiDimAdvec =   /* use Muti-Dim Advec method for Salt */
(PID.TID 0000.0001)                   F
(PID.TID 0000.0001)     ;
(PID.TID 0000.0001) saltSOM_Advection = /* use 2nd Order Moment Advection for Salt */
(PID.TID 0000.0001)                   F
(PID.TID 0000.0001)     ;
(PID.TID 0000.0001) AdamsBashforthGs = /* apply Adams-Bashforth extrapolation on Gs */
(PID.TID 0000.0001)                   T
(PID.TID 0000.0001)     ;
(PID.TID 0000.0001) AdamsBashforth_S = /* apply Adams-Bashforth extrapolation on Salt */
(PID.TID 0000.0001)                   F
(PID.TID 0000.0001)     ;
(PID.TID 0000.0001) // ===================================
(PID.TID 0000.0001) ------------------------------------------------------------
(PID.TID 0000.0001) DIAGNOSTICS_SET_LEVELS: done
(PID.TID 0000.0001)  Total Nb of available Diagnostics: ndiagt=   191
(PID.TID 0000.0001)  write list of available Diagnostics to file: available_diagnostics.log
(PID.TID 0000.0001) SETDIAG: Allocate  1 x  1 Levels for Diagnostic #    23 ETAN
(PID.TID 0000.0001) SETDIAG: Allocate  1 x  1 Levels for Diagnostic #    24 ETANSQ
(PID.TID 0000.0001) SETDIAG: Allocate  1 x  1 Levels for Diagnostic #    25 DETADT2
(PID.TID 0000.0001) SETDIAG: Allocate  1 x  1 Levels for Diagnostic #    69 PHIBOT
(PID.TID 0000.0001) SETDIAG: Allocate  1 x  1 Levels for Diagnostic #    70 PHIBOTSQ
(PID.TID 0000.0001) SETDIAG: Allocate  1 x  1 Levels for Diagnostic #    71 MXLDEPTH
(PID.TID 0000.0001) SETDIAG: Allocate  1 x  1 Levels for Diagnostic #   190 GM_BVPcW
(PID.TID 0000.0001) SETDIAG: Allocate  1 x  1 Levels for Diagnostic #   191 GM_BVPcS
(PID.TID 0000.0001) SETDIAG: Allocate 25 x  1 Levels for Diagnostic #    72 DRHODR
(PID.TID 0000.0001) SETDIAG: Allocate 25 x  1 Levels for Diagnostic #    62 RHOAnoma
(PID.TID 0000.0001) SETDIAG: Allocate 25 x  1 Levels for Diagnostic #   182 GM_Kwy
(PID.TID 0000.0001) SETDIAG: Allocate 25 x  1 Levels for Diagnostic #   183 GM_Kwz
(PID.TID 0000.0001) SETDIAG: Allocate 25 x  1 Levels for Diagnostic #   178 GM_Kvy
(PID.TID 0000.0001) SETDIAG: Allocate 25 x  1 Levels for Diagnostic #    26 THETA
(PID.TID 0000.0001) SETDIAG: Allocate 25 x  1 Levels for Diagnostic #   185 GM_PsiY
(PID.TID 0000.0001) SETDIAG: Allocate 25 x  1 Levels for Diagnostic #   180 GM_Kvz
(PID.TID 0000.0001)   space allocated for all diagnostics:     208 levels
(PID.TID 0000.0001)   set mate pointer for diag #   190  GM_BVPcW , Parms: SU P    M1 , mate:   191
(PID.TID 0000.0001)   set mate pointer for diag #   191  GM_BVPcS , Parms: SV P    M1 , mate:   190
(PID.TID 0000.0001) DIAGNOSTICS_SET_POINTERS: Set levels for Outp.Stream: oceDiag
(PID.TID 0000.0001)  Levels:       1.   2.   3.   4.   5.   6.   7.   8.   9.  10.  11.  12.  13.  14.  15.  16.  17.  18.  19.  20.
(PID.TID 0000.0001)  Levels:      21.  22.  23.  24.  25.
(PID.TID 0000.0001) DIAGNOSTICS_SET_POINTERS: done
(PID.TID 0000.0001) ------------------------------------------------------------
(PID.TID 0000.0001) DIAGSTATS_SET_REGIONS: define no region
(PID.TID 0000.0001) ------------------------------------------------------------
(PID.TID 0000.0001) SETDIAG: Allocate  1 Levels for Stats-Diag #    23 ETAN
(PID.TID 0000.0001) SETDIAG: Allocate 25 Levels for Stats-Diag #    30 UVEL
(PID.TID 0000.0001) SETDIAG: Allocate 25 Levels for Stats-Diag #    31 VVEL
(PID.TID 0000.0001) SETDIAG: Allocate 25 Levels for Stats-Diag #    32 WVEL
(PID.TID 0000.0001) SETDIAG: Allocate 25 Levels for Stats-Diag #    26 THETA
(PID.TID 0000.0001) SETDIAG: Allocate  1 Levels for Stats-Diag #    71 MXLDEPTH
(PID.TID 0000.0001) SETDIAG: Allocate 25 Levels for Stats-Diag #   182 GM_Kwy
(PID.TID 0000.0001) SETDIAG: Allocate 25 Levels for Stats-Diag #   183 GM_Kwz
(PID.TID 0000.0001) SETDIAG: Allocate 25 Levels for Stats-Diag #   178 GM_Kvy
(PID.TID 0000.0001) SETDIAG: Allocate 25 Levels for Stats-Diag #   185 GM_PsiY
(PID.TID 0000.0001) SETDIAG: Allocate 25 Levels for Stats-Diag #   180 GM_Kvz
(PID.TID 0000.0001)   space allocated for all stats-diags:     227 levels
(PID.TID 0000.0001) DIAGSTATS_SET_POINTERS: done
(PID.TID 0000.0001) ------------------------------------------------------------
(PID.TID 0000.0001) DIAGSTATS_INI_IO: open file: dynStDiag.0000000000.txt , unit=     9
(PID.TID 0000.0001) %MON fCori_max                    =   1.0000000000000E-04
(PID.TID 0000.0001) %MON fCori_min                    =   1.0000000000000E-04
(PID.TID 0000.0001) %MON fCori_mean                   =   1.0000000000000E-04
(PID.TID 0000.0001) %MON fCori_sd                     =   2.7105054312138E-20
(PID.TID 0000.0001) %MON fCoriG_max                   =   1.0000000000000E-04
(PID.TID 0000.0001) %MON fCoriG_min                   =   1.0000000000000E-04
(PID.TID 0000.0001) %MON fCoriG_mean                  =   1.0000000000000E-04
(PID.TID 0000.0001) %MON fCoriG_sd                    =   2.7105054312138E-20
(PID.TID 0000.0001) %MON fCoriCos_max                 =   0.0000000000000E+00
(PID.TID 0000.0001) %MON fCoriCos_min                 =   0.0000000000000E+00
(PID.TID 0000.0001) %MON fCoriCos_mean                =   0.0000000000000E+00
(PID.TID 0000.0001) %MON fCoriCos_sd                  =   0.0000000000000E+00
(PID.TID 0000.0001) INI_CG2D: CG2D normalisation factor =  5.0006567712553626E-04
(PID.TID 0000.0001) 
(PID.TID 0000.0001) // =======================================================
(PID.TID 0000.0001) // Model configuration
(PID.TID 0000.0001) // =======================================================
(PID.TID 0000.0001) //
(PID.TID 0000.0001) // "Physical" paramters ( PARM01 in namelist )
(PID.TID 0000.0001) //
(PID.TID 0000.0001) buoyancyRelation = /* Type of relation to get Buoyancy */
(PID.TID 0000.0001)               'OCEANIC'
(PID.TID 0000.0001)     ;
(PID.TID 0000.0001) fluidIsAir   =  /* fluid major constituent is Air */
(PID.TID 0000.0001)                   F
(PID.TID 0000.0001)     ;
(PID.TID 0000.0001) fluidIsWater =  /* fluid major constituent is Water */
(PID.TID 0000.0001)                   T
(PID.TID 0000.0001)     ;
(PID.TID 0000.0001) usingPCoords =  /* use p (or p*) vertical coordinate */
(PID.TID 0000.0001)                   F
(PID.TID 0000.0001)     ;
(PID.TID 0000.0001) usingZCoords =  /* use z (or z*) vertical coordinate */
(PID.TID 0000.0001)                   T
(PID.TID 0000.0001)     ;
(PID.TID 0000.0001) tRef =   /* Reference temperature profile ( oC or K ) */
(PID.TID 0000.0001)                 2.900000000000000E+01,      /* K =  1 */
(PID.TID 0000.0001)                 2.800000000000000E+01,      /* K =  2 */
(PID.TID 0000.0001)                 2.700000000000000E+01,      /* K =  3 */
(PID.TID 0000.0001)                 2.600000000000000E+01,      /* K =  4 */
(PID.TID 0000.0001)                 2.500000000000000E+01,      /* K =  5 */
(PID.TID 0000.0001)                 2.400000000000000E+01,      /* K =  6 */
(PID.TID 0000.0001)                 2.300000000000000E+01,      /* K =  7 */
(PID.TID 0000.0001)                 2.200000000000000E+01,      /* K =  8 */
(PID.TID 0000.0001)                 2.100000000000000E+01,      /* K =  9 */
(PID.TID 0000.0001)                 2.000000000000000E+01,      /* K = 10 */
(PID.TID 0000.0001)                 1.900000000000000E+01,      /* K = 11 */
(PID.TID 0000.0001)                 1.800000000000000E+01,      /* K = 12 */
(PID.TID 0000.0001)                 1.700000000000000E+01,      /* K = 13 */
(PID.TID 0000.0001)                 1.600000000000000E+01,      /* K = 14 */
(PID.TID 0000.0001)                 1.500000000000000E+01,      /* K = 15 */
(PID.TID 0000.0001)                 1.400000000000000E+01,      /* K = 16 */
(PID.TID 0000.0001)                 1.300000000000000E+01,      /* K = 17 */
(PID.TID 0000.0001)                 1.200000000000000E+01,      /* K = 18 */
(PID.TID 0000.0001)                 1.100000000000000E+01,      /* K = 19 */
(PID.TID 0000.0001)                 1.000000000000000E+01,      /* K = 20 */
(PID.TID 0000.0001)                 9.000000000000000E+00,      /* K = 21 */
(PID.TID 0000.0001)                 7.000000000000000E+00,      /* K = 22 */
(PID.TID 0000.0001)                 8.000000000000000E+00,      /* K = 23 */
(PID.TID 0000.0001)                 6.000000000000000E+00,      /* K = 24 */
(PID.TID 0000.0001)                 5.000000000000000E+00       /* K = 25 */
(PID.TID 0000.0001)     ;
(PID.TID 0000.0001) sRef =   /* Reference salinity profile ( psu ) */
(PID.TID 0000.0001)    25 @  3.000000000000000E+01              /* K =  1: 25 */
(PID.TID 0000.0001)     ;
(PID.TID 0000.0001) viscAh  =   /* Lateral eddy viscosity ( m^2/s ) */
(PID.TID 0000.0001)                 0.000000000000000E+00
(PID.TID 0000.0001)     ;
(PID.TID 0000.0001) viscAhMax = /* Maximum lateral eddy viscosity ( m^2/s ) */
(PID.TID 0000.0001)                 1.000000000000000E+21
(PID.TID 0000.0001)     ;
(PID.TID 0000.0001) viscAhGrid = /* Grid dependent lateral eddy viscosity ( non-dim. ) */
(PID.TID 0000.0001)                 0.000000000000000E+00
(PID.TID 0000.0001)     ;
(PID.TID 0000.0001) useFullLeith = /* Use Full Form of Leith Viscosity on/off flag*/
(PID.TID 0000.0001)                   F
(PID.TID 0000.0001)     ;
(PID.TID 0000.0001) useStrainTensionVisc= /* Use StrainTension Form of Viscous Operator flag*/
(PID.TID 0000.0001)                   F
(PID.TID 0000.0001)     ;
(PID.TID 0000.0001) useAreaViscLength = /* Use area for visc length instead of geom. mean*/
(PID.TID 0000.0001)                   F
(PID.TID 0000.0001)     ;
(PID.TID 0000.0001) viscC2leith = /* Leith harmonic visc. factor (on grad(vort),non-dim.) */
(PID.TID 0000.0001)                 0.000000000000000E+00
(PID.TID 0000.0001)     ;
(PID.TID 0000.0001) viscC2leithD = /* Leith harmonic viscosity factor (on grad(div),non-dim.)*/
(PID.TID 0000.0001)                 0.000000000000000E+00
(PID.TID 0000.0001)     ;
(PID.TID 0000.0001) viscC2smag = /* Smagorinsky harmonic viscosity factor (non-dim.) */
(PID.TID 0000.0001)                 0.000000000000000E+00
(PID.TID 0000.0001)     ;
(PID.TID 0000.0001) viscA4  =   /* Lateral biharmonic viscosity ( m^4/s ) */
(PID.TID 0000.0001)                 1.200000000000000E+06
(PID.TID 0000.0001)     ;
(PID.TID 0000.0001) viscA4Max = /* Maximum biharmonic viscosity ( m^2/s ) */
(PID.TID 0000.0001)                 1.000000000000000E+21
(PID.TID 0000.0001)     ;
(PID.TID 0000.0001) viscA4Grid = /* Grid dependent biharmonic viscosity ( non-dim. ) */
(PID.TID 0000.0001)                 0.000000000000000E+00
(PID.TID 0000.0001)     ;
(PID.TID 0000.0001) viscC4leith = /* Leith biharm viscosity factor (on grad(vort), non-dim.)*/
(PID.TID 0000.0001)                 0.000000000000000E+00
(PID.TID 0000.0001)     ;
(PID.TID 0000.0001) viscC4leithD = /* Leith biharm viscosity factor (on grad(div), non-dim.) */
(PID.TID 0000.0001)                 0.000000000000000E+00
(PID.TID 0000.0001)     ;
(PID.TID 0000.0001) viscC4Smag = /* Smagorinsky biharm viscosity factor (non-dim) */
(PID.TID 0000.0001)                 0.000000000000000E+00
(PID.TID 0000.0001)     ;
(PID.TID 0000.0001) no_slip_sides =  /* Viscous BCs: No-slip sides */
(PID.TID 0000.0001)                   F
(PID.TID 0000.0001)     ;
(PID.TID 0000.0001) sideDragFactor = /* side-drag scaling factor (non-dim) */
(PID.TID 0000.0001)                 2.000000000000000E+00
(PID.TID 0000.0001)     ;
(PID.TID 0000.0001) viscArNr = /* vertical profile of vertical viscosity ( m^2/s )*/
(PID.TID 0000.0001)    25 @  2.000000000000000E-04              /* K =  1: 25 */
(PID.TID 0000.0001)     ;
(PID.TID 0000.0001) no_slip_bottom =  /* Viscous BCs: No-slip bottom */
(PID.TID 0000.0001)                   T
(PID.TID 0000.0001)     ;
(PID.TID 0000.0001) bottomDragLinear = /* linear bottom-drag coefficient ( m/s ) */
(PID.TID 0000.0001)                 1.000000000000000E-03
(PID.TID 0000.0001)     ;
(PID.TID 0000.0001) bottomDragQuadratic = /* quadratic bottom-drag coefficient (-) */
(PID.TID 0000.0001)                 0.000000000000000E+00
(PID.TID 0000.0001)     ;
(PID.TID 0000.0001) diffKhT =   /* Laplacian diffusion of heat laterally ( m^2/s ) */
(PID.TID 0000.0001)                 0.000000000000000E+00
(PID.TID 0000.0001)     ;
(PID.TID 0000.0001) diffK4T =   /* Biharmonic diffusion of heat laterally ( m^4/s ) */
(PID.TID 0000.0001)                 0.000000000000000E+00
(PID.TID 0000.0001)     ;
(PID.TID 0000.0001) diffKhS =   /* Laplacian diffusion of salt laterally ( m^2/s ) */
(PID.TID 0000.0001)                 0.000000000000000E+00
(PID.TID 0000.0001)     ;
(PID.TID 0000.0001) diffK4S =   /* Biharmonic diffusion of salt laterally ( m^4/s ) */
(PID.TID 0000.0001)                 0.000000000000000E+00
(PID.TID 0000.0001)     ;
(PID.TID 0000.0001) diffKrNrT = /* vertical profile of vertical diffusion of Temp ( m^2/s )*/
(PID.TID 0000.0001)     6 @  1.000000000000000E-02,             /* K =  1:  6 */
(PID.TID 0000.0001)    19 @  2.000000000000000E-05              /* K =  7: 25 */
(PID.TID 0000.0001)     ;
(PID.TID 0000.0001) diffKrNrS = /* vertical profile of vertical diffusion of Salt ( m^2/s )*/
(PID.TID 0000.0001)     6 @  1.000000000000000E-02,             /* K =  1:  6 */
(PID.TID 0000.0001)    19 @  2.000000000000000E-05              /* K =  7: 25 */
(PID.TID 0000.0001)     ;
(PID.TID 0000.0001) diffKrBL79surf = /* Surface diffusion for Bryan and Lewis 79 ( m^2/s ) */
(PID.TID 0000.0001)                 0.000000000000000E+00
(PID.TID 0000.0001)     ;
(PID.TID 0000.0001) diffKrBL79deep = /* Deep diffusion for Bryan and Lewis 1979 ( m^2/s ) */
(PID.TID 0000.0001)                 0.000000000000000E+00
(PID.TID 0000.0001)     ;
(PID.TID 0000.0001) diffKrBL79scl = /* Depth scale for Bryan and Lewis 1979 ( m ) */
(PID.TID 0000.0001)                 2.000000000000000E+02
(PID.TID 0000.0001)     ;
(PID.TID 0000.0001) diffKrBL79Ho = /* Turning depth for Bryan and Lewis 1979 ( m ) */
(PID.TID 0000.0001)                -2.000000000000000E+03
(PID.TID 0000.0001)     ;
(PID.TID 0000.0001) ivdc_kappa = /* Implicit Vertical Diffusivity for Convection ( m^2/s) */
(PID.TID 0000.0001)                 0.000000000000000E+00
(PID.TID 0000.0001)     ;
(PID.TID 0000.0001) hMixCriteria=  /* Criteria for mixed-layer diagnostic */
(PID.TID 0000.0001)                -1.000000000000000E-01
(PID.TID 0000.0001)     ;
(PID.TID 0000.0001) dRhoSmall =  /* Parameter for mixed-layer diagnostic */
(PID.TID 0000.0001)                 1.000000000000000E-06
(PID.TID 0000.0001)     ;
(PID.TID 0000.0001) hMixSmooth=  /* Smoothing parameter for mixed-layer diagnostic */
(PID.TID 0000.0001)                 0.000000000000000E+00
(PID.TID 0000.0001)     ;
(PID.TID 0000.0001) eosType =  /* Type of Equation of State */
(PID.TID 0000.0001)               'LINEAR'
(PID.TID 0000.0001)     ;
(PID.TID 0000.0001) tAlpha =   /* Linear EOS thermal expansion coefficient ( 1/oC ) */
(PID.TID 0000.0001)                 2.000000000000000E-04
(PID.TID 0000.0001)     ;
(PID.TID 0000.0001) sBeta =   /* Linear EOS haline contraction coefficient ( 1/psu ) */
(PID.TID 0000.0001)                 0.000000000000000E+00
(PID.TID 0000.0001)     ;
(PID.TID 0000.0001) rhonil =   /* Reference density ( kg/m^3 ) */
(PID.TID 0000.0001)                 1.000000000000000E+03
(PID.TID 0000.0001)     ;
(PID.TID 0000.0001) rhoConst =   /* Reference density ( kg/m^3 ) */
(PID.TID 0000.0001)                 1.000000000000000E+03
(PID.TID 0000.0001)     ;
(PID.TID 0000.0001) rhoFacC = /* normalized Reference density @ cell-Center (-) */
(PID.TID 0000.0001)    25 @  1.000000000000000E+00              /* K =  1: 25 */
(PID.TID 0000.0001)     ;
(PID.TID 0000.0001) rhoFacF = /* normalized Reference density @ W-Interface (-) */
(PID.TID 0000.0001)    26 @  1.000000000000000E+00              /* K =  1: 26 */
(PID.TID 0000.0001)     ;
(PID.TID 0000.0001) rhoConstFresh =   /* Reference density ( kg/m^3 ) */
(PID.TID 0000.0001)                 1.000000000000000E+03
(PID.TID 0000.0001)     ;
(PID.TID 0000.0001) gravity =   /* Gravitational acceleration ( m/s^2 ) */
(PID.TID 0000.0001)                 9.810000000000000E+00
(PID.TID 0000.0001)     ;
(PID.TID 0000.0001) gBaro =   /* Barotropic gravity ( m/s^2 ) */
(PID.TID 0000.0001)                 9.810000000000000E+00
(PID.TID 0000.0001)     ;
(PID.TID 0000.0001) rotationPeriod =   /* Rotation Period ( s ) */
(PID.TID 0000.0001)                 8.616400000000000E+04
(PID.TID 0000.0001)     ;
(PID.TID 0000.0001) omega =   /* Angular velocity ( rad/s ) */
(PID.TID 0000.0001)                 7.292123516990375E-05
(PID.TID 0000.0001)     ;
(PID.TID 0000.0001) f0 =   /* Reference coriolis parameter ( 1/s ) */
(PID.TID 0000.0001)                 1.000000000000000E-04
(PID.TID 0000.0001)     ;
(PID.TID 0000.0001) beta =   /* Beta ( 1/(m.s) ) */
(PID.TID 0000.0001)                 0.000000000000000E+00
(PID.TID 0000.0001)     ;
(PID.TID 0000.0001) fPrime =   /* Second coriolis parameter ( 1/s ) */
(PID.TID 0000.0001)                 0.000000000000000E+00
(PID.TID 0000.0001)     ;
(PID.TID 0000.0001) rigidLid =   /* Rigid lid on/off flag */
(PID.TID 0000.0001)                   F
(PID.TID 0000.0001)     ;
(PID.TID 0000.0001) implicitFreeSurface =   /* Implicit free surface on/off flag */
(PID.TID 0000.0001)                   T
(PID.TID 0000.0001)     ;
(PID.TID 0000.0001) freeSurfFac =   /* Implicit free surface factor */
(PID.TID 0000.0001)                 1.000000000000000E+00
(PID.TID 0000.0001)     ;
(PID.TID 0000.0001) implicSurfPress =  /* Surface Pressure implicit factor (0-1)*/
(PID.TID 0000.0001)                 1.000000000000000E+00
(PID.TID 0000.0001)     ;
(PID.TID 0000.0001) implicDiv2Dflow =  /* Barot. Flow Div. implicit factor (0-1)*/
(PID.TID 0000.0001)                 1.000000000000000E+00
(PID.TID 0000.0001)     ;
(PID.TID 0000.0001) exactConserv =  /* Exact Volume Conservation on/off flag*/
(PID.TID 0000.0001)                   F
(PID.TID 0000.0001)     ;
(PID.TID 0000.0001) linFSConserveTr = /* Tracer correction for Lin Free Surface on/off flag*/
(PID.TID 0000.0001)                   F
(PID.TID 0000.0001)     ;
(PID.TID 0000.0001) uniformLin_PhiSurf = /* use uniform Bo_surf on/off flag*/
(PID.TID 0000.0001)                   T
(PID.TID 0000.0001)     ;
(PID.TID 0000.0001) hFacMin =   /* minimum partial cell factor (hFac) */
(PID.TID 0000.0001)                 1.000000000000000E-01
(PID.TID 0000.0001)     ;
(PID.TID 0000.0001) hFacMinDr = /* minimum partial cell thickness ( m) */
(PID.TID 0000.0001)                 1.000000000000000E-01
(PID.TID 0000.0001)     ;
(PID.TID 0000.0001) nonlinFreeSurf = /* Non-linear Free Surf. options (-1,0,1,2,3)*/
(PID.TID 0000.0001)                       0
(PID.TID 0000.0001)      -1,0= Off ; 1,2,3= On, 2=+rescale gU,gV, 3=+update cg2d solv.
(PID.TID 0000.0001)     ;
(PID.TID 0000.0001) hFacInf =   /* lower threshold for hFac (nonlinFreeSurf only)*/
(PID.TID 0000.0001)                 2.000000000000000E-01
(PID.TID 0000.0001)     ;
(PID.TID 0000.0001) hFacSup =   /* upper threshold for hFac (nonlinFreeSurf only)*/
(PID.TID 0000.0001)                 2.000000000000000E+00
(PID.TID 0000.0001)     ;
(PID.TID 0000.0001) select_rStar = /* r* Vertical coord. options (=0 r coord.; >0 uses r*)*/
(PID.TID 0000.0001)                       0
(PID.TID 0000.0001)     ;
(PID.TID 0000.0001) selectAddFluid = /* option for mass source/sink of fluid (=0: off) */
(PID.TID 0000.0001)                       0
(PID.TID 0000.0001)     ;
(PID.TID 0000.0001) useRealFreshWaterFlux = /* Real Fresh Water Flux on/off flag*/
(PID.TID 0000.0001)                   F
(PID.TID 0000.0001)     ;
(PID.TID 0000.0001) temp_EvPrRn = /* Temp. of Evap/Prec/R (UNSET=use local T)(oC)*/
(PID.TID 0000.0001)                 1.234567000000000E+05
(PID.TID 0000.0001)     ;
(PID.TID 0000.0001) salt_EvPrRn = /* Salin. of Evap/Prec/R (UNSET=use local S)(psu)*/
(PID.TID 0000.0001)                 0.000000000000000E+00
(PID.TID 0000.0001)     ;
(PID.TID 0000.0001) temp_addMass = /* Temp. of addMass array (UNSET=use local T)(oC)*/
(PID.TID 0000.0001)                 1.234567000000000E+05
(PID.TID 0000.0001)     ;
(PID.TID 0000.0001) salt_addMass = /* Salin. of addMass array (UNSET=use local S)(psu)*/
(PID.TID 0000.0001)                 0.000000000000000E+00
(PID.TID 0000.0001)     ;
(PID.TID 0000.0001) convertFW2Salt = /* convert F.W. Flux to Salt Flux (-1=use local S)(psu)*/
(PID.TID 0000.0001)                 3.500000000000000E+01
(PID.TID 0000.0001)     ;
(PID.TID 0000.0001) use3Dsolver = /* use 3-D pressure solver on/off flag */
(PID.TID 0000.0001)                   F
(PID.TID 0000.0001)     ;
(PID.TID 0000.0001) nonHydrostatic =  /* Non-Hydrostatic on/off flag */
(PID.TID 0000.0001)                   F
(PID.TID 0000.0001)     ;
(PID.TID 0000.0001) nh_Am2 = /* Non-Hydrostatic terms scaling factor */
(PID.TID 0000.0001)                 1.000000000000000E+00
(PID.TID 0000.0001)     ;
(PID.TID 0000.0001) implicitNHPress = /* Non-Hyd Pressure implicit factor (0-1)*/
(PID.TID 0000.0001)                 1.000000000000000E+00
(PID.TID 0000.0001)     ;
(PID.TID 0000.0001) selectNHfreeSurf = /* Non-Hyd (free-)Surface option */
(PID.TID 0000.0001)                       0
(PID.TID 0000.0001)     ;
(PID.TID 0000.0001) quasiHydrostatic = /* Quasi-Hydrostatic on/off flag */
(PID.TID 0000.0001)                   F
(PID.TID 0000.0001)     ;
(PID.TID 0000.0001) momStepping =  /* Momentum equation on/off flag */
(PID.TID 0000.0001)                   T
(PID.TID 0000.0001)     ;
(PID.TID 0000.0001) vectorInvariantMomentum= /* Vector-Invariant Momentum on/off */
(PID.TID 0000.0001)                   F
(PID.TID 0000.0001)     ;
(PID.TID 0000.0001) momAdvection =  /* Momentum advection on/off flag */
(PID.TID 0000.0001)                   T
(PID.TID 0000.0001)     ;
(PID.TID 0000.0001) momViscosity =  /* Momentum viscosity on/off flag */
(PID.TID 0000.0001)                   T
(PID.TID 0000.0001)     ;
(PID.TID 0000.0001) momImplVertAdv= /* Momentum implicit vert. advection on/off*/
(PID.TID 0000.0001)                   F
(PID.TID 0000.0001)     ;
(PID.TID 0000.0001) implicitViscosity = /* Implicit viscosity on/off flag */
(PID.TID 0000.0001)                   F
(PID.TID 0000.0001)     ;
(PID.TID 0000.0001) metricTerms =  /* metric-Terms on/off flag */
(PID.TID 0000.0001)                   F
(PID.TID 0000.0001)     ;
(PID.TID 0000.0001) useNHMTerms = /* Non-Hydrostatic Metric-Terms on/off */
(PID.TID 0000.0001)                   F
(PID.TID 0000.0001)     ;
(PID.TID 0000.0001) selectCoriMap = /* Coriolis Map options (0,1,2,3)*/
(PID.TID 0000.0001)                       1
(PID.TID 0000.0001)     0= f-Plane ; 1= Beta-Plane ; 2= Spherical ; 3= read from file
(PID.TID 0000.0001)     ;
(PID.TID 0000.0001) use3dCoriolis = /* 3-D Coriolis on/off flag */
(PID.TID 0000.0001)                   F
(PID.TID 0000.0001)     ;
(PID.TID 0000.0001) useCoriolis =  /* Coriolis on/off flag */
(PID.TID 0000.0001)                   T
(PID.TID 0000.0001)     ;
(PID.TID 0000.0001) useCDscheme =  /* CD scheme on/off flag */
(PID.TID 0000.0001)                   F
(PID.TID 0000.0001)     ;
(PID.TID 0000.0001) useJamartWetPoints= /* Coriolis WetPoints method flag */
(PID.TID 0000.0001)                   F
(PID.TID 0000.0001)     ;
(PID.TID 0000.0001) useJamartMomAdv= /* V.I. Non-linear terms Jamart flag */
(PID.TID 0000.0001)                   F
(PID.TID 0000.0001)     ;
(PID.TID 0000.0001) useAbsVorticity= /* Work with f+zeta in Coriolis */
(PID.TID 0000.0001)                   F
(PID.TID 0000.0001)     ;
(PID.TID 0000.0001) selectVortScheme= /* Scheme selector for Vorticity-Term */
(PID.TID 0000.0001)               123456789
(PID.TID 0000.0001)    = 0 : enstrophy (Shallow-Water Eq.) conserving scheme by Sadourny, JAS 75
(PID.TID 0000.0001)    = 1 : same as 0 with modified hFac
(PID.TID 0000.0001)    = 2 : energy conserving scheme (used by Sadourny in JAS 75 paper)
(PID.TID 0000.0001)    = 3 : energy (general) and enstrophy (2D, nonDiv.) conserving scheme
(PID.TID 0000.0001)          from Sadourny (Burridge & Haseler, ECMWF Rep.4, 1977)
(PID.TID 0000.0001)     ;
(PID.TID 0000.0001) upwindVorticity= /* Upwind bias vorticity flag */
(PID.TID 0000.0001)                   F
(PID.TID 0000.0001)     ;
(PID.TID 0000.0001) highOrderVorticity= /* High order interp. of vort. flag */
(PID.TID 0000.0001)                   F
(PID.TID 0000.0001)     ;
(PID.TID 0000.0001) upwindShear= /* Upwind vertical Shear advection flag */
(PID.TID 0000.0001)                   F
(PID.TID 0000.0001)     ;
(PID.TID 0000.0001) selectKEscheme= /* Kinetic Energy scheme selector */
(PID.TID 0000.0001)                       0
(PID.TID 0000.0001)     ;
(PID.TID 0000.0001) momForcing =  /* Momentum forcing on/off flag */
(PID.TID 0000.0001)                   T
(PID.TID 0000.0001)     ;
(PID.TID 0000.0001) momPressureForcing =  /* Momentum pressure term on/off flag */
(PID.TID 0000.0001)                   T
(PID.TID 0000.0001)     ;
(PID.TID 0000.0001) implicitIntGravWave= /* Implicit Internal Gravity Wave flag */
(PID.TID 0000.0001)                   F
(PID.TID 0000.0001)     ;
(PID.TID 0000.0001) staggerTimeStep =   /* Stagger time stepping on/off flag */
(PID.TID 0000.0001)                   F
(PID.TID 0000.0001)     ;
(PID.TID 0000.0001) multiDimAdvection =   /* enable/disable Multi-Dim Advection */
(PID.TID 0000.0001)                   T
(PID.TID 0000.0001)     ;
(PID.TID 0000.0001) useMultiDimAdvec =   /* Multi-Dim Advection is/is-not used */
(PID.TID 0000.0001)                   F
(PID.TID 0000.0001)     ;
(PID.TID 0000.0001) implicitDiffusion = /* Implicit Diffusion on/off flag */
(PID.TID 0000.0001)                   T
(PID.TID 0000.0001)     ;
(PID.TID 0000.0001) tempStepping =  /* Temperature equation on/off flag */
(PID.TID 0000.0001)                   T
(PID.TID 0000.0001)     ;
(PID.TID 0000.0001) tempAdvection=  /* Temperature advection on/off flag */
(PID.TID 0000.0001)                   T
(PID.TID 0000.0001)     ;
(PID.TID 0000.0001) tempImplVertAdv = /* Temp. implicit vert. advection on/off */
(PID.TID 0000.0001)                   F
(PID.TID 0000.0001)     ;
(PID.TID 0000.0001) tempForcing  =  /* Temperature forcing on/off flag */
(PID.TID 0000.0001)                   T
(PID.TID 0000.0001)     ;
(PID.TID 0000.0001) tempIsActiveTr = /* Temp. is a dynamically Active Tracer */
(PID.TID 0000.0001)                   T
(PID.TID 0000.0001)     ;
(PID.TID 0000.0001) saltStepping =  /* Salinity equation on/off flag */
(PID.TID 0000.0001)                   T
(PID.TID 0000.0001)     ;
(PID.TID 0000.0001) saltAdvection=  /* Salinity advection on/off flag */
(PID.TID 0000.0001)                   T
(PID.TID 0000.0001)     ;
(PID.TID 0000.0001) saltImplVertAdv = /* Sali. implicit vert. advection on/off */
(PID.TID 0000.0001)                   F
(PID.TID 0000.0001)     ;
(PID.TID 0000.0001) saltForcing  =  /* Salinity forcing on/off flag */
(PID.TID 0000.0001)                   T
(PID.TID 0000.0001)     ;
(PID.TID 0000.0001) saltIsActiveTr = /* Salt  is a dynamically Active Tracer */
(PID.TID 0000.0001)                   F
(PID.TID 0000.0001)     ;
(PID.TID 0000.0001)  readBinaryPrec = /* Precision used for reading binary files */
(PID.TID 0000.0001)                      64
(PID.TID 0000.0001)     ;
(PID.TID 0000.0001) writeBinaryPrec = /* Precision used for writing binary files */
(PID.TID 0000.0001)                      64
(PID.TID 0000.0001)     ;
(PID.TID 0000.0001)  globalFiles = /* write "global" (=not per tile) files */
(PID.TID 0000.0001)                   F
(PID.TID 0000.0001)     ;
(PID.TID 0000.0001)  useSingleCpuIO = /* only master MPI process does I/O */
(PID.TID 0000.0001)                   F
(PID.TID 0000.0001)     ;
(PID.TID 0000.0001)  debugMode  =  /* Debug Mode on/off flag */
(PID.TID 0000.0001)                   F
(PID.TID 0000.0001)     ;
(PID.TID 0000.0001)    debLevA  =  /* 1rst level of debugging */
(PID.TID 0000.0001)                       1
(PID.TID 0000.0001)     ;
(PID.TID 0000.0001)    debLevB  =  /* 2nd  level of debugging */
(PID.TID 0000.0001)                       2
(PID.TID 0000.0001)     ;
(PID.TID 0000.0001)  debugLevel =  /* select debugging level */
(PID.TID 0000.0001)                       1
(PID.TID 0000.0001)     ;
(PID.TID 0000.0001) //
(PID.TID 0000.0001) // Elliptic solver(s) paramters ( PARM02 in namelist )
(PID.TID 0000.0001) //
(PID.TID 0000.0001) cg2dMaxIters =   /* Upper limit on 2d con. grad iterations  */
(PID.TID 0000.0001)                    1000
(PID.TID 0000.0001)     ;
(PID.TID 0000.0001) cg2dChkResFreq =   /* 2d con. grad convergence test frequency */
(PID.TID 0000.0001)                       1
(PID.TID 0000.0001)     ;
(PID.TID 0000.0001) cg2dTargetResidual =   /* 2d con. grad target residual  */
(PID.TID 0000.0001)                 1.000000000000000E-13
(PID.TID 0000.0001)     ;
(PID.TID 0000.0001) cg2dTargetResWunit =   /* CG2d target residual [W units] */
(PID.TID 0000.0001)                -1.000000000000000E+00
(PID.TID 0000.0001)     ;
(PID.TID 0000.0001) cg2dPreCondFreq =   /* Freq. for updating cg2d preconditioner */
(PID.TID 0000.0001)                       1
(PID.TID 0000.0001)     ;
(PID.TID 0000.0001) useSRCGSolver =  /* use single reduction CG solver(s) */
(PID.TID 0000.0001)                   F
(PID.TID 0000.0001)     ;
(PID.TID 0000.0001) //
(PID.TID 0000.0001) // Time stepping paramters ( PARM03 in namelist )
(PID.TID 0000.0001) //
(PID.TID 0000.0001) deltaTmom =   /* Momentum equation timestep ( s ) */
(PID.TID 0000.0001)                 3.600000000000000E+03
(PID.TID 0000.0001)     ;
(PID.TID 0000.0001) deltaTfreesurf = /* FreeSurface equation timestep ( s ) */
(PID.TID 0000.0001)                 3.600000000000000E+03
(PID.TID 0000.0001)     ;
(PID.TID 0000.0001) dTtracerLev =  /* Tracer equation timestep ( s ) */
(PID.TID 0000.0001)    25 @  3.600000000000000E+03              /* K =  1: 25 */
(PID.TID 0000.0001)     ;
(PID.TID 0000.0001) deltaTClock  =   /* Model clock timestep ( s ) */
(PID.TID 0000.0001)                 3.600000000000000E+03
(PID.TID 0000.0001)     ;
(PID.TID 0000.0001) cAdjFreq =   /* Convective adjustment interval ( s ) */
(PID.TID 0000.0001)                 3.600000000000000E+03
(PID.TID 0000.0001)     ;
(PID.TID 0000.0001) momForcingOutAB = /* =1: take Momentum Forcing out of Adams-Bash. stepping */
(PID.TID 0000.0001)                       0
(PID.TID 0000.0001)     ;
(PID.TID 0000.0001) tracForcingOutAB = /* =1: take T,S,pTr Forcing out of Adams-Bash. stepping */
(PID.TID 0000.0001)                       0
(PID.TID 0000.0001)     ;
(PID.TID 0000.0001) momDissip_In_AB = /* put Dissipation Tendency in Adams-Bash. stepping */
(PID.TID 0000.0001)                   T
(PID.TID 0000.0001)     ;
(PID.TID 0000.0001) doAB_onGtGs = /* apply AB on Tendencies (rather than on T,S)*/
(PID.TID 0000.0001)                   T
(PID.TID 0000.0001)     ;
(PID.TID 0000.0001) abEps =   /* Adams-Bashforth-2 stabilizing weight */
(PID.TID 0000.0001)                 1.000000000000000E-01
(PID.TID 0000.0001)     ;
(PID.TID 0000.0001) pickupStrictlyMatch= /* stop if pickup do not strictly match */
(PID.TID 0000.0001)                   T
(PID.TID 0000.0001)     ;
(PID.TID 0000.0001) nIter0   =   /* Run starting timestep number */
(PID.TID 0000.0001)                       0
(PID.TID 0000.0001)     ;
(PID.TID 0000.0001) nTimeSteps = /* Number of timesteps */
(PID.TID 0000.0001)                      25
(PID.TID 0000.0001)     ;
(PID.TID 0000.0001) nEndIter =   /* Run ending timestep number */
(PID.TID 0000.0001)                      25
(PID.TID 0000.0001)     ;
(PID.TID 0000.0001) baseTime =   /* Model base time ( s ) */
(PID.TID 0000.0001)                 0.000000000000000E+00
(PID.TID 0000.0001)     ;
(PID.TID 0000.0001) startTime =  /* Run start time ( s ) */
(PID.TID 0000.0001)                 0.000000000000000E+00
(PID.TID 0000.0001)     ;
(PID.TID 0000.0001) endTime  =   /* Integration ending time ( s ) */
(PID.TID 0000.0001)                 9.000000000000000E+04
(PID.TID 0000.0001)     ;
(PID.TID 0000.0001) pChkPtFreq = /* Permanent restart/pickup file interval ( s ) */
(PID.TID 0000.0001)                 0.000000000000000E+00
(PID.TID 0000.0001)     ;
(PID.TID 0000.0001) chkPtFreq  = /* Rolling restart/pickup file interval ( s ) */
(PID.TID 0000.0001)                 0.000000000000000E+00
(PID.TID 0000.0001)     ;
(PID.TID 0000.0001) pickup_write_mdsio =   /* Model IO flag. */
(PID.TID 0000.0001)                   T
(PID.TID 0000.0001)     ;
(PID.TID 0000.0001) pickup_read_mdsio =   /* Model IO flag. */
(PID.TID 0000.0001)                   T
(PID.TID 0000.0001)     ;
(PID.TID 0000.0001) pickup_write_immed =   /* Model IO flag. */
(PID.TID 0000.0001)                   F
(PID.TID 0000.0001)     ;
(PID.TID 0000.0001) writePickupAtEnd =   /* Model IO flag. */
(PID.TID 0000.0001)                   T
(PID.TID 0000.0001)     ;
(PID.TID 0000.0001) dumpFreq =   /* Model state write out interval ( s ). */
(PID.TID 0000.0001)                 2.592000000000000E+06
(PID.TID 0000.0001)     ;
(PID.TID 0000.0001) dumpInitAndLast= /* write out Initial & Last iter. model state */
(PID.TID 0000.0001)                   T
(PID.TID 0000.0001)     ;
(PID.TID 0000.0001) snapshot_mdsio =   /* Model IO flag. */
(PID.TID 0000.0001)                   T
(PID.TID 0000.0001)     ;
(PID.TID 0000.0001) monitorFreq =   /* Monitor output interval ( s ). */
(PID.TID 0000.0001)                 1.000000000000000E+00
(PID.TID 0000.0001)     ;
(PID.TID 0000.0001) monitorSelect = /* select group of variables to monitor */
(PID.TID 0000.0001)                       1
(PID.TID 0000.0001)     ;
(PID.TID 0000.0001) monitor_stdio =   /* Model IO flag. */
(PID.TID 0000.0001)                   T
(PID.TID 0000.0001)     ;
(PID.TID 0000.0001) externForcingPeriod =   /* forcing period (s) */
(PID.TID 0000.0001)                 0.000000000000000E+00
(PID.TID 0000.0001)     ;
(PID.TID 0000.0001) externForcingCycle =   /* period of the cyle (s). */
(PID.TID 0000.0001)                 0.000000000000000E+00
(PID.TID 0000.0001)     ;
(PID.TID 0000.0001) tauThetaClimRelax =   /* relaxation time scale (s) */
(PID.TID 0000.0001)                 0.000000000000000E+00
(PID.TID 0000.0001)     ;
(PID.TID 0000.0001) tauSaltClimRelax =   /* relaxation time scale (s) */
(PID.TID 0000.0001)                 0.000000000000000E+00
(PID.TID 0000.0001)     ;
(PID.TID 0000.0001) latBandClimRelax =   /* max. Lat. where relaxation */
(PID.TID 0000.0001)                 9.600000000000000E+06
(PID.TID 0000.0001)     ;
(PID.TID 0000.0001) //
(PID.TID 0000.0001) // Gridding paramters ( PARM04 in namelist )
(PID.TID 0000.0001) //
(PID.TID 0000.0001) usingCartesianGrid = /* Cartesian coordinates flag ( True/False ) */
(PID.TID 0000.0001)                   T
(PID.TID 0000.0001)     ;
(PID.TID 0000.0001) usingCylindricalGrid = /* Cylindrical coordinates flag ( True/False ) */
(PID.TID 0000.0001)                   F
(PID.TID 0000.0001)     ;
(PID.TID 0000.0001) usingSphericalPolarGrid = /* Spherical coordinates flag ( True/False ) */
(PID.TID 0000.0001)                   F
(PID.TID 0000.0001)     ;
(PID.TID 0000.0001) usingCurvilinearGrid = /* Curvilinear coordinates flag ( True/False ) */
(PID.TID 0000.0001)                   F
(PID.TID 0000.0001)     ;
(PID.TID 0000.0001) selectSigmaCoord = /* Hybrid-Sigma Vert. Coordinate option */
(PID.TID 0000.0001)                       0
(PID.TID 0000.0001)     ;
(PID.TID 0000.0001) Ro_SeaLevel = /* r(1) ( units of r ==  m ) */
(PID.TID 0000.0001)                 0.000000000000000E+00
(PID.TID 0000.0001)     ;
(PID.TID 0000.0001) rSigmaBnd = /* r/sigma transition ( units of r ==  m ) */
(PID.TID 0000.0001)                 1.234567000000000E+05
(PID.TID 0000.0001)     ;
(PID.TID 0000.0001) rkSign =   /* index orientation relative to vertical coordinate */
(PID.TID 0000.0001)                -1.000000000000000E+00
(PID.TID 0000.0001)     ;
(PID.TID 0000.0001) gravitySign = /* gravity orientation relative to vertical coordinate */
(PID.TID 0000.0001)                -1.000000000000000E+00
(PID.TID 0000.0001)     ;
(PID.TID 0000.0001) mass2rUnit = /* convert mass per unit area [kg/m2] to r-units [m] */
(PID.TID 0000.0001)                 1.000000000000000E-03
(PID.TID 0000.0001)     ;
(PID.TID 0000.0001) rUnit2mass = /* convert r-units [m] to mass per unit area [kg/m2] */
(PID.TID 0000.0001)                 1.000000000000000E+03
(PID.TID 0000.0001)     ;
(PID.TID 0000.0001) drC =   /* C spacing ( units of r ) */
(PID.TID 0000.0001)                 1.000000000000000E+01,      /* K =  1 */
(PID.TID 0000.0001)     9 @  2.000000000000000E+01,             /* K =  2: 10 */
(PID.TID 0000.0001)                 2.200000000000000E+01,      /* K = 11 */
(PID.TID 0000.0001)                 2.650000000000000E+01,      /* K = 12 */
(PID.TID 0000.0001)                 3.200000000000000E+01,      /* K = 13 */
(PID.TID 0000.0001)                 3.850000000000000E+01,      /* K = 14 */
(PID.TID 0000.0001)                 4.650000000000000E+01,      /* K = 15 */
(PID.TID 0000.0001)                 5.600000000000000E+01,      /* K = 16 */
(PID.TID 0000.0001)                 6.750000000000000E+01,      /* K = 17 */
(PID.TID 0000.0001)                 8.150000000000000E+01,      /* K = 18 */
(PID.TID 0000.0001)                 9.800000000000000E+01,      /* K = 19 */
(PID.TID 0000.0001)                 1.175000000000000E+02,      /* K = 20 */
(PID.TID 0000.0001)                 1.415000000000000E+02,      /* K = 21 */
(PID.TID 0000.0001)                 1.705000000000000E+02,      /* K = 22 */
(PID.TID 0000.0001)                 2.050000000000000E+02,      /* K = 23 */
(PID.TID 0000.0001)                 2.470000000000000E+02,      /* K = 24 */
(PID.TID 0000.0001)                 2.975000000000000E+02       /* K = 25 */
(PID.TID 0000.0001)     ;
(PID.TID 0000.0001) drF =   /* W spacing ( units of r ) */
(PID.TID 0000.0001)    10 @  2.000000000000000E+01,             /* K =  1: 10 */
(PID.TID 0000.0001)                 2.400000000000000E+01,      /* K = 11 */
(PID.TID 0000.0001)                 2.900000000000000E+01,      /* K = 12 */
(PID.TID 0000.0001)                 3.500000000000000E+01,      /* K = 13 */
(PID.TID 0000.0001)                 4.200000000000000E+01,      /* K = 14 */
(PID.TID 0000.0001)                 5.100000000000000E+01,      /* K = 15 */
(PID.TID 0000.0001)                 6.100000000000000E+01,      /* K = 16 */
(PID.TID 0000.0001)                 7.400000000000000E+01,      /* K = 17 */
(PID.TID 0000.0001)                 8.900000000000000E+01,      /* K = 18 */
(PID.TID 0000.0001)                 1.070000000000000E+02,      /* K = 19 */
(PID.TID 0000.0001)                 1.280000000000000E+02,      /* K = 20 */
(PID.TID 0000.0001)                 1.550000000000000E+02,      /* K = 21 */
(PID.TID 0000.0001)                 1.860000000000000E+02,      /* K = 22 */
(PID.TID 0000.0001)                 2.240000000000000E+02,      /* K = 23 */
(PID.TID 0000.0001)                 2.700000000000000E+02,      /* K = 24 */
(PID.TID 0000.0001)                 3.250000000000000E+02       /* K = 25 */
(PID.TID 0000.0001)     ;
(PID.TID 0000.0001) delX = /* U spacing ( m - cartesian, degrees - spherical ) */
(PID.TID 0000.0001)                 1.000000000000000E+05       /* I =  1 */
(PID.TID 0000.0001)     ;
(PID.TID 0000.0001) delY = /* V spacing ( m - cartesian, degrees - spherical ) */
(PID.TID 0000.0001)    32 @  1.000000000000000E+05              /* J =  1: 32 */
(PID.TID 0000.0001)     ;
(PID.TID 0000.0001) xgOrigin = /* X-axis origin of West  edge (cartesian: m, lat-lon: deg.) */
(PID.TID 0000.0001)                 0.000000000000000E+00
(PID.TID 0000.0001)     ;
(PID.TID 0000.0001) ygOrigin = /* Y-axis origin of South edge (cartesian: m, lat-lon: deg.) */
(PID.TID 0000.0001)                 0.000000000000000E+00
(PID.TID 0000.0001)     ;
(PID.TID 0000.0001) rSphere =  /* Radius ( ignored - cartesian, m - spherical ) */
(PID.TID 0000.0001)                 6.370000000000000E+06
(PID.TID 0000.0001)     ;
(PID.TID 0000.0001) deepAtmosphere = /* Deep/Shallow Atmosphere flag (True/False) */
(PID.TID 0000.0001)                   F
(PID.TID 0000.0001)     ;
(PID.TID 0000.0001) xC =  /* xC(:,1,:,1) : P-point X coord ( deg. or m if cartesian) */
(PID.TID 0000.0001)                 5.000000000000000E+04       /* I =  1 */
(PID.TID 0000.0001)     ;
(PID.TID 0000.0001) yC =  /* yC(1,:,1,:) : P-point Y coord ( deg. or m if cartesian) */
(PID.TID 0000.0001)                 5.000000000000000E+04,      /* J =  1 */
(PID.TID 0000.0001)                 1.500000000000000E+05,      /* J =  2 */
(PID.TID 0000.0001)                 2.500000000000000E+05,      /* J =  3 */
(PID.TID 0000.0001)                 3.500000000000000E+05,      /* J =  4 */
(PID.TID 0000.0001)                 4.500000000000000E+05,      /* J =  5 */
(PID.TID 0000.0001)                 5.500000000000000E+05,      /* J =  6 */
(PID.TID 0000.0001)                 6.500000000000000E+05,      /* J =  7 */
(PID.TID 0000.0001)                 7.500000000000000E+05,      /* J =  8 */
(PID.TID 0000.0001)                 8.500000000000000E+05,      /* J =  9 */
(PID.TID 0000.0001)                 9.500000000000000E+05,      /* J = 10 */
(PID.TID 0000.0001)                 1.050000000000000E+06,      /* J = 11 */
(PID.TID 0000.0001)                 1.150000000000000E+06,      /* J = 12 */
(PID.TID 0000.0001)                 1.250000000000000E+06,      /* J = 13 */
(PID.TID 0000.0001)                 1.350000000000000E+06,      /* J = 14 */
(PID.TID 0000.0001)                 1.450000000000000E+06,      /* J = 15 */
(PID.TID 0000.0001)                 1.550000000000000E+06,      /* J = 16 */
(PID.TID 0000.0001)                 1.650000000000000E+06,      /* J = 17 */
(PID.TID 0000.0001)                 1.750000000000000E+06,      /* J = 18 */
(PID.TID 0000.0001)                 1.850000000000000E+06,      /* J = 19 */
(PID.TID 0000.0001)                 1.950000000000000E+06,      /* J = 20 */
(PID.TID 0000.0001)                 2.050000000000000E+06,      /* J = 21 */
(PID.TID 0000.0001)                 2.150000000000000E+06,      /* J = 22 */
(PID.TID 0000.0001)                 2.250000000000000E+06,      /* J = 23 */
(PID.TID 0000.0001)                 2.350000000000000E+06,      /* J = 24 */
(PID.TID 0000.0001)                 2.450000000000000E+06,      /* J = 25 */
(PID.TID 0000.0001)                 2.550000000000000E+06,      /* J = 26 */
(PID.TID 0000.0001)                 2.650000000000000E+06,      /* J = 27 */
(PID.TID 0000.0001)                 2.750000000000000E+06,      /* J = 28 */
(PID.TID 0000.0001)                 2.850000000000000E+06,      /* J = 29 */
(PID.TID 0000.0001)                 2.950000000000000E+06,      /* J = 30 */
(PID.TID 0000.0001)                 3.050000000000000E+06,      /* J = 31 */
(PID.TID 0000.0001)                 3.150000000000000E+06       /* J = 32 */
(PID.TID 0000.0001)     ;
(PID.TID 0000.0001) rcoord = /* P-point R coordinate (  units of r ) */
(PID.TID 0000.0001)                -1.000000000000000E+01,      /* K =  1 */
(PID.TID 0000.0001)                -3.000000000000000E+01,      /* K =  2 */
(PID.TID 0000.0001)                -5.000000000000000E+01,      /* K =  3 */
(PID.TID 0000.0001)                -7.000000000000000E+01,      /* K =  4 */
(PID.TID 0000.0001)                -9.000000000000000E+01,      /* K =  5 */
(PID.TID 0000.0001)                -1.100000000000000E+02,      /* K =  6 */
(PID.TID 0000.0001)                -1.300000000000000E+02,      /* K =  7 */
(PID.TID 0000.0001)                -1.500000000000000E+02,      /* K =  8 */
(PID.TID 0000.0001)                -1.700000000000000E+02,      /* K =  9 */
(PID.TID 0000.0001)                -1.900000000000000E+02,      /* K = 10 */
(PID.TID 0000.0001)                -2.120000000000000E+02,      /* K = 11 */
(PID.TID 0000.0001)                -2.385000000000000E+02,      /* K = 12 */
(PID.TID 0000.0001)                -2.705000000000000E+02,      /* K = 13 */
(PID.TID 0000.0001)                -3.090000000000000E+02,      /* K = 14 */
(PID.TID 0000.0001)                -3.555000000000000E+02,      /* K = 15 */
(PID.TID 0000.0001)                -4.115000000000000E+02,      /* K = 16 */
(PID.TID 0000.0001)                -4.790000000000000E+02,      /* K = 17 */
(PID.TID 0000.0001)                -5.605000000000000E+02,      /* K = 18 */
(PID.TID 0000.0001)                -6.585000000000000E+02,      /* K = 19 */
(PID.TID 0000.0001)                -7.760000000000000E+02,      /* K = 20 */
(PID.TID 0000.0001)                -9.175000000000000E+02,      /* K = 21 */
(PID.TID 0000.0001)                -1.088000000000000E+03,      /* K = 22 */
(PID.TID 0000.0001)                -1.293000000000000E+03,      /* K = 23 */
(PID.TID 0000.0001)                -1.540000000000000E+03,      /* K = 24 */
(PID.TID 0000.0001)                -1.837500000000000E+03       /* K = 25 */
(PID.TID 0000.0001)     ;
(PID.TID 0000.0001) rF =   /* W-Interf. R coordinate (  units of r ) */
(PID.TID 0000.0001)                 0.000000000000000E+00,      /* K =  1 */
(PID.TID 0000.0001)                -2.000000000000000E+01,      /* K =  2 */
(PID.TID 0000.0001)                -4.000000000000000E+01,      /* K =  3 */
(PID.TID 0000.0001)                -6.000000000000000E+01,      /* K =  4 */
(PID.TID 0000.0001)                -8.000000000000000E+01,      /* K =  5 */
(PID.TID 0000.0001)                -1.000000000000000E+02,      /* K =  6 */
(PID.TID 0000.0001)                -1.200000000000000E+02,      /* K =  7 */
(PID.TID 0000.0001)                -1.400000000000000E+02,      /* K =  8 */
(PID.TID 0000.0001)                -1.600000000000000E+02,      /* K =  9 */
(PID.TID 0000.0001)                -1.800000000000000E+02,      /* K = 10 */
(PID.TID 0000.0001)                -2.000000000000000E+02,      /* K = 11 */
(PID.TID 0000.0001)                -2.240000000000000E+02,      /* K = 12 */
(PID.TID 0000.0001)                -2.530000000000000E+02,      /* K = 13 */
(PID.TID 0000.0001)                -2.880000000000000E+02,      /* K = 14 */
(PID.TID 0000.0001)                -3.300000000000000E+02,      /* K = 15 */
(PID.TID 0000.0001)                -3.810000000000000E+02,      /* K = 16 */
(PID.TID 0000.0001)                -4.420000000000000E+02,      /* K = 17 */
(PID.TID 0000.0001)                -5.160000000000000E+02,      /* K = 18 */
(PID.TID 0000.0001)                -6.050000000000000E+02,      /* K = 19 */
(PID.TID 0000.0001)                -7.120000000000000E+02,      /* K = 20 */
(PID.TID 0000.0001)                -8.400000000000000E+02,      /* K = 21 */
(PID.TID 0000.0001)                -9.950000000000000E+02,      /* K = 22 */
(PID.TID 0000.0001)                -1.181000000000000E+03,      /* K = 23 */
(PID.TID 0000.0001)                -1.405000000000000E+03,      /* K = 24 */
(PID.TID 0000.0001)                -1.675000000000000E+03,      /* K = 25 */
(PID.TID 0000.0001)                -2.000000000000000E+03       /* K = 26 */
(PID.TID 0000.0001)     ;
(PID.TID 0000.0001) deepFacC = /* deep-model grid factor @ cell-Center (-) */
(PID.TID 0000.0001)    25 @  1.000000000000000E+00              /* K =  1: 25 */
(PID.TID 0000.0001)     ;
(PID.TID 0000.0001) deepFacF = /* deep-model grid factor @ W-Interface (-) */
(PID.TID 0000.0001)    26 @  1.000000000000000E+00              /* K =  1: 26 */
(PID.TID 0000.0001)     ;
(PID.TID 0000.0001) rVel2wUnit = /* convert units: rVel -> wSpeed (=1 if z-coord)*/
(PID.TID 0000.0001)    26 @  1.000000000000000E+00              /* K =  1: 26 */
(PID.TID 0000.0001)     ;
(PID.TID 0000.0001) wUnit2rVel = /* convert units: wSpeed -> rVel (=1 if z-coord)*/
(PID.TID 0000.0001)    26 @  1.000000000000000E+00              /* K =  1: 26 */
(PID.TID 0000.0001)     ;
(PID.TID 0000.0001) dBdrRef = /* Vertical gradient of reference boyancy [(m/s/r)^2)] */
(PID.TID 0000.0001)                 0.000000000000000E+00,      /* K =  1 */
(PID.TID 0000.0001)     9 @  9.810000000000001E-05,             /* K =  2: 10 */
(PID.TID 0000.0001)                 8.918181818181819E-05,      /* K = 11 */
(PID.TID 0000.0001)                 7.403773584905661E-05,      /* K = 12 */
(PID.TID 0000.0001)                 6.131250000000001E-05,      /* K = 13 */
(PID.TID 0000.0001)                 5.096103896103897E-05,      /* K = 14 */
(PID.TID 0000.0001)                 4.219354838709678E-05,      /* K = 15 */
(PID.TID 0000.0001)                 3.503571428571429E-05,      /* K = 16 */
(PID.TID 0000.0001)                 2.906666666666667E-05,      /* K = 17 */
(PID.TID 0000.0001)                 2.407361963190185E-05,      /* K = 18 */
(PID.TID 0000.0001)                 2.002040816326531E-05,      /* K = 19 */
(PID.TID 0000.0001)                 1.669787234042553E-05,      /* K = 20 */
(PID.TID 0000.0001)                 1.386572438162544E-05,      /* K = 21 */
(PID.TID 0000.0001)                 2.301466275659825E-05,      /* K = 22 */
(PID.TID 0000.0001)                -9.570731707317075E-06,      /* K = 23 */
(PID.TID 0000.0001)                 1.588663967611337E-05,      /* K = 24 */
(PID.TID 0000.0001)                 6.594957983193279E-06       /* K = 25 */
(PID.TID 0000.0001)     ;
(PID.TID 0000.0001) rotateGrid = /* use rotated grid ( True/False ) */
(PID.TID 0000.0001)                   F
(PID.TID 0000.0001)     ;
(PID.TID 0000.0001) phiEuler = /* Euler angle, rotation about original z-coordinate [rad] */
(PID.TID 0000.0001)                 0.000000000000000E+00
(PID.TID 0000.0001)     ;
(PID.TID 0000.0001) thetaEuler = /* Euler angle, rotation about new x-coordinate [rad] */
(PID.TID 0000.0001)                 0.000000000000000E+00
(PID.TID 0000.0001)     ;
(PID.TID 0000.0001) psiEuler = /* Euler angle, rotation about new z-coordinate [rad] */
(PID.TID 0000.0001)                 0.000000000000000E+00
(PID.TID 0000.0001)     ;
(PID.TID 0000.0001) dxF =  /* dxF(:,1,:,1) ( units: m ) */
(PID.TID 0000.0001)                 1.000000000000000E+05       /* I =  1 */
(PID.TID 0000.0001)     ;
(PID.TID 0000.0001) dxF =  /* dxF(1,:,1,:) ( units: m ) */
(PID.TID 0000.0001)    32 @  1.000000000000000E+05              /* J =  1: 32 */
(PID.TID 0000.0001)     ;
(PID.TID 0000.0001) dyF =  /* dyF(:,1,:,1) ( units: m ) */
(PID.TID 0000.0001)                 1.000000000000000E+05       /* I =  1 */
(PID.TID 0000.0001)     ;
(PID.TID 0000.0001) dyF =  /* dyF(1,:,1,:) ( units: m ) */
(PID.TID 0000.0001)    32 @  1.000000000000000E+05              /* J =  1: 32 */
(PID.TID 0000.0001)     ;
(PID.TID 0000.0001) dxG =  /* dxG(:,1,:,1) ( units: m ) */
(PID.TID 0000.0001)                 1.000000000000000E+05       /* I =  1 */
(PID.TID 0000.0001)     ;
(PID.TID 0000.0001) dxG =  /* dxG(1,:,1,:) ( units: m ) */
(PID.TID 0000.0001)    32 @  1.000000000000000E+05              /* J =  1: 32 */
(PID.TID 0000.0001)     ;
(PID.TID 0000.0001) dyG =  /* dyG(:,1,:,1) ( units: m ) */
(PID.TID 0000.0001)                 1.000000000000000E+05       /* I =  1 */
(PID.TID 0000.0001)     ;
(PID.TID 0000.0001) dyG =  /* dyG(1,:,1,:) ( units: m ) */
(PID.TID 0000.0001)    32 @  1.000000000000000E+05              /* J =  1: 32 */
(PID.TID 0000.0001)     ;
(PID.TID 0000.0001) dxC =  /* dxC(:,1,:,1) ( units: m ) */
(PID.TID 0000.0001)                 1.000000000000000E+05       /* I =  1 */
(PID.TID 0000.0001)     ;
(PID.TID 0000.0001) dxC =  /* dxC(1,:,1,:) ( units: m ) */
(PID.TID 0000.0001)    32 @  1.000000000000000E+05              /* J =  1: 32 */
(PID.TID 0000.0001)     ;
(PID.TID 0000.0001) dyC =  /* dyC(:,1,:,1) ( units: m ) */
(PID.TID 0000.0001)                 1.000000000000000E+05       /* I =  1 */
(PID.TID 0000.0001)     ;
(PID.TID 0000.0001) dyC =  /* dyC(1,:,1,:) ( units: m ) */
(PID.TID 0000.0001)    32 @  1.000000000000000E+05              /* J =  1: 32 */
(PID.TID 0000.0001)     ;
(PID.TID 0000.0001) dxV =  /* dxV(:,1,:,1) ( units: m ) */
(PID.TID 0000.0001)                 1.000000000000000E+05       /* I =  1 */
(PID.TID 0000.0001)     ;
(PID.TID 0000.0001) dxV =  /* dxV(1,:,1,:) ( units: m ) */
(PID.TID 0000.0001)    32 @  1.000000000000000E+05              /* J =  1: 32 */
(PID.TID 0000.0001)     ;
(PID.TID 0000.0001) dyU =  /* dyU(:,1,:,1) ( units: m ) */
(PID.TID 0000.0001)                 1.000000000000000E+05       /* I =  1 */
(PID.TID 0000.0001)     ;
(PID.TID 0000.0001) dyU =  /* dyU(1,:,1,:) ( units: m ) */
(PID.TID 0000.0001)    32 @  1.000000000000000E+05              /* J =  1: 32 */
(PID.TID 0000.0001)     ;
(PID.TID 0000.0001) rA  =  /* rA (:,1,:,1) ( units: m^2 ) */
(PID.TID 0000.0001)                 1.000000000000000E+10       /* I =  1 */
(PID.TID 0000.0001)     ;
(PID.TID 0000.0001) rA  =  /* rA (1,:,1,:) ( units: m^2 ) */
(PID.TID 0000.0001)    32 @  1.000000000000000E+10              /* J =  1: 32 */
(PID.TID 0000.0001)     ;
(PID.TID 0000.0001) rAw =  /* rAw(:,1,:,1) ( units: m^2 ) */
(PID.TID 0000.0001)                 1.000000000000000E+10       /* I =  1 */
(PID.TID 0000.0001)     ;
(PID.TID 0000.0001) rAw =  /* rAw(1,:,1,:) ( units: m^2 ) */
(PID.TID 0000.0001)    32 @  1.000000000000000E+10              /* J =  1: 32 */
(PID.TID 0000.0001)     ;
(PID.TID 0000.0001) rAs =  /* rAs(:,1,:,1) ( units: m^2 ) */
(PID.TID 0000.0001)                 1.000000000000000E+10       /* I =  1 */
(PID.TID 0000.0001)     ;
(PID.TID 0000.0001) rAs =  /* rAs(1,:,1,:) ( units: m^2 ) */
(PID.TID 0000.0001)    32 @  1.000000000000000E+10              /* J =  1: 32 */
(PID.TID 0000.0001)     ;
(PID.TID 0000.0001) globalArea = /* Integrated horizontal Area (m^2) */
(PID.TID 0000.0001)                 3.000000000000000E+11
(PID.TID 0000.0001)     ;
(PID.TID 0000.0001) // =======================================================
(PID.TID 0000.0001) // End of Model config. summary
(PID.TID 0000.0001) // =======================================================
(PID.TID 0000.0001) 
(PID.TID 0000.0001) == Packages configuration : Check & print summary ==
(PID.TID 0000.0001) 
(PID.TID 0000.0001) GMREDI_CHECK: #define GMREDI
(PID.TID 0000.0001) GM_AdvForm =     /* if FALSE => use SkewFlux Form */
(PID.TID 0000.0001)                   T
(PID.TID 0000.0001)     ;
(PID.TID 0000.0001) GM_InMomAsStress = /* if TRUE => apply as Eddy Stress */
(PID.TID 0000.0001)                   F
(PID.TID 0000.0001)     ;
(PID.TID 0000.0001) GM_AdvSeparate = /* Calc Bolus & Euler Adv. separately */
(PID.TID 0000.0001)                   F
(PID.TID 0000.0001)     ;
(PID.TID 0000.0001) GM_ExtraDiag =   /* Tensor Extra Diag (line 1&2) non 0 */
(PID.TID 0000.0001)                   T
(PID.TID 0000.0001)     ;
(PID.TID 0000.0001) GM_isopycK =    /* Background Isopyc. Diffusivity [m^2/s] */
(PID.TID 0000.0001)                 1.000000000000000E+03
(PID.TID 0000.0001)     ;
(PID.TID 0000.0001) GM_skewflx*K =  /* Background GM_SkewFlx Diffusivity [m^2/s] */
(PID.TID 0000.0001)                 0.000000000000000E+00
(PID.TID 0000.0001)     ;
(PID.TID 0000.0001) GM_advec*K =    /* Backg. GM-Advec(=Bolus) Diffusivity [m^2/s]*/
(PID.TID 0000.0001)                 1.000000000000000E+03
(PID.TID 0000.0001)     ;
(PID.TID 0000.0001) GM_Kmin_horiz = /* Minimum Horizontal Diffusivity [m^2/s] */
(PID.TID 0000.0001)                 0.000000000000000E+00
(PID.TID 0000.0001)     ;
(PID.TID 0000.0001) GM_Visbeck_alpha = /* Visbeck alpha coeff. [-] */
(PID.TID 0000.0001)                 0.000000000000000E+00
(PID.TID 0000.0001)     ;
(PID.TID 0000.0001) GM_Small_Number =  /* epsilon used in slope calc */
(PID.TID 0000.0001)                 9.999999999999999E-21
(PID.TID 0000.0001)     ;
(PID.TID 0000.0001) GM_slopeSqCutoff = /* Slope^2 cut-off value */
(PID.TID 0000.0001)                 1.000000000000000E+48
(PID.TID 0000.0001)     ;
(PID.TID 0000.0001) GM_taper_scheme =  /* Type of Tapering/Clipping scheme */
(PID.TID 0000.0001)               'linear                                  '
(PID.TID 0000.0001)     ;
(PID.TID 0000.0001) GM_maxSlope =  /* Maximum Slope (Tapering/Clipping) */
(PID.TID 0000.0001)                 1.000000000000000E-02
(PID.TID 0000.0001)     ;
(PID.TID 0000.0001) GM_facTrL2dz = /* Minimum Trans.Layer Thick. (factor of dz) */
(PID.TID 0000.0001)                 0.000000000000000E+00
(PID.TID 0000.0001)     ;
(PID.TID 0000.0001) GM_facTrL2ML = /* Max.Trans.Layer Thick. (factor of MxL Depth)*/
(PID.TID 0000.0001)                 5.000000000000000E+00
(PID.TID 0000.0001)     ;
(PID.TID 0000.0001) GM_maxTransLay = /* Maximum Transition Layer Thickness [m] */
(PID.TID 0000.0001)                 5.000000000000000E+02
(PID.TID 0000.0001)     ;
(PID.TID 0000.0001) GM_UseBVP = /* if TRUE => use bvp a la Ferrari et al. (2010) */
(PID.TID 0000.0001)                   T
(PID.TID 0000.0001)     ;
(PID.TID 0000.0001) GM_BVP_ModeNumber = /* Vertical mode number for BVP wave speed */
(PID.TID 0000.0001)                       1
(PID.TID 0000.0001)     ;
(PID.TID 0000.0001) GM_BVP_cMin = /* Minimum wave speed for BVP [m/s] */
(PID.TID 0000.0001)                 1.000000000000000E-01
(PID.TID 0000.0001)     ;
(PID.TID 0000.0001) GAD_CHECK: #define ALLOW_GENERIC_ADVDIFF
(PID.TID 0000.0001) // =======================================================
(PID.TID 0000.0001) // CONFIG_CHECK : Normal End
(PID.TID 0000.0001) // =======================================================
(PID.TID 0000.0001) 
(PID.TID 0000.0001)  MDS_READ_FIELD: opening global file: u_ini.bin
(PID.TID 0000.0001)  MDS_READ_FIELD: opening global file: t_ini.bin
(PID.TID 0000.0001)  MDS_READ_FIELD: opening global file: s_ini.bin
(PID.TID 0000.0001) Start initial hydrostatic pressure computation
(PID.TID 0000.0001) Pressure is predetermined for buoyancyRelation OCEANIC
(PID.TID 0000.0001) 
(PID.TID 0000.0001)  write diagnostics summary to file ioUnit:      6
Iter.Nb:         0 ; Time(s):  0.0000000000000E+00
------------------------------------------------------------------------
2D/3D diagnostics: Number of lists:     2
------------------------------------------------------------------------
listId=    1 ; file name: surfDiag
 nFlds, nActive,       freq     &     phase        , nLev               
    8  |    8  |    -86400.000000         0.000000 |   1
 levels:   1
 diag# | name   |   ipt  |  iMate | kLev|   count |   mate.C|           
    23 |ETAN    |      1 |      0 |   1 |       0 |
    24 |ETANSQ  |      2 |      0 |   1 |       0 |
    25 |DETADT2 |      3 |      0 |   1 |       0 |
    69 |PHIBOT  |      4 |      0 |   1 |       0 |
    70 |PHIBOTSQ|      5 |      0 |   1 |       0 |
    71 |MXLDEPTH|      6 |      0 |   1 |       0 |
   190 |GM_BVPcW|      7 |      8 |   1 |       0 |       0 |
   191 |GM_BVPcS|      8 |      7 |   1 |       0 |       0 |
------------------------------------------------------------------------
listId=    2 ; file name: oceDiag
 nFlds, nActive,       freq     &     phase        , nLev               
    8  |    8  |    -86400.000000         0.000000 |  25
 levels:   1   2   3   4   5   6   7   8   9  10  11  12  13  14  15  16  17  18  19  20  21  22  23  24  25
 diag# | name   |   ipt  |  iMate | kLev|   count |   mate.C|           
    72 |DRHODR  |      9 |      0 |  25 |       0 |
    62 |RHOAnoma|     34 |      0 |  25 |       0 |
   182 |GM_Kwy  |     59 |      0 |  25 |       0 |
   183 |GM_Kwz  |     84 |      0 |  25 |       0 |
   178 |GM_Kvy  |    109 |      0 |  25 |       0 |
    26 |THETA   |    134 |      0 |  25 |       0 |
   185 |GM_PsiY |    159 |      0 |  25 |       0 |
   180 |GM_Kvz  |    184 |      0 |  25 |       0 |
------------------------------------------------------------------------
Global & Regional Statistics diagnostics: Number of lists:     1
------------------------------------------------------------------------
listId=   1 ; file name: dynStDiag
 nFlds, nActive,       freq     &     phase        |                    
   11  |   11  |     18000.000000         0.000000 |
 Regions:   0
 diag# | name   |   ipt  |  iMate |    Volume   |   mate-Vol. |         
    23 |ETAN    |      1 |      0 | 0.00000E+00 |
    30 |UVEL    |      2 |      0 | 0.00000E+00 |
    31 |VVEL    |     27 |      0 | 0.00000E+00 |
    32 |WVEL    |     52 |      0 | 0.00000E+00 |
    26 |THETA   |     77 |      0 | 0.00000E+00 |
    71 |MXLDEPTH|    102 |      0 | 0.00000E+00 |
   182 |GM_Kwy  |    103 |      0 | 0.00000E+00 |
   183 |GM_Kwz  |    128 |      0 | 0.00000E+00 |
   178 |GM_Kvy  |    153 |      0 | 0.00000E+00 |
   185 |GM_PsiY |    178 |      0 | 0.00000E+00 |
   180 |GM_Kvz  |    203 |      0 | 0.00000E+00 |
------------------------------------------------------------------------
(PID.TID 0000.0001) // =======================================================
(PID.TID 0000.0001) // Model current state
(PID.TID 0000.0001) // =======================================================
(PID.TID 0000.0001) 
(PID.TID 0000.0001) // =======================================================
(PID.TID 0000.0001) // Begin MONITOR dynamic field statistics
(PID.TID 0000.0001) // =======================================================
(PID.TID 0000.0001) %MON time_tsnumber                =                     0
(PID.TID 0000.0001) %MON time_secondsf                =   0.0000000000000E+00
(PID.TID 0000.0001) %MON dynstat_eta_max              =   0.0000000000000E+00
(PID.TID 0000.0001) %MON dynstat_eta_min              =   0.0000000000000E+00
(PID.TID 0000.0001) %MON dynstat_eta_mean             =   0.0000000000000E+00
(PID.TID 0000.0001) %MON dynstat_eta_sd               =   0.0000000000000E+00
(PID.TID 0000.0001) %MON dynstat_eta_del2             =   0.0000000000000E+00
(PID.TID 0000.0001) %MON dynstat_uvel_max             =   1.2708890949034E-01
(PID.TID 0000.0001) %MON dynstat_uvel_min             =  -1.2708890949034E-01
(PID.TID 0000.0001) %MON dynstat_uvel_mean            =  -5.4975756068516E-06
(PID.TID 0000.0001) %MON dynstat_uvel_sd              =   2.0322315569060E-02
(PID.TID 0000.0001) %MON dynstat_uvel_del2            =   5.0509287841793E-04
(PID.TID 0000.0001) %MON dynstat_vvel_max             =   0.0000000000000E+00
(PID.TID 0000.0001) %MON dynstat_vvel_min             =   0.0000000000000E+00
(PID.TID 0000.0001) %MON dynstat_vvel_mean            =   0.0000000000000E+00
(PID.TID 0000.0001) %MON dynstat_vvel_sd              =   0.0000000000000E+00
(PID.TID 0000.0001) %MON dynstat_vvel_del2            =   0.0000000000000E+00
(PID.TID 0000.0001) %MON dynstat_wvel_max             =  -0.0000000000000E+00
(PID.TID 0000.0001) %MON dynstat_wvel_min             =  -0.0000000000000E+00
(PID.TID 0000.0001) %MON dynstat_wvel_mean            =   0.0000000000000E+00
(PID.TID 0000.0001) %MON dynstat_wvel_sd              =   0.0000000000000E+00
(PID.TID 0000.0001) %MON dynstat_wvel_del2            =   0.0000000000000E+00
(PID.TID 0000.0001) %MON dynstat_theta_max            =   1.3324548570971E+01
(PID.TID 0000.0001) %MON dynstat_theta_min            =   6.2538226645252E+00
(PID.TID 0000.0001) %MON dynstat_theta_mean           =   8.4642401720337E+00
(PID.TID 0000.0001) %MON dynstat_theta_sd             =   1.4059935903981E+00
(PID.TID 0000.0001) %MON dynstat_theta_del2           =   7.4185613820284E-03
(PID.TID 0000.0001) %MON dynstat_salt_max             =   1.1996530790116E+01
(PID.TID 0000.0001) %MON dynstat_salt_min             =   1.0464440295541E+01
(PID.TID 0000.0001) %MON dynstat_salt_mean            =   1.1308841661162E+01
(PID.TID 0000.0001) %MON dynstat_salt_sd              =   5.1722696788685E-01
(PID.TID 0000.0001) %MON dynstat_salt_del2            =   5.6431444333042E-04
(PID.TID 0000.0001) %MON advcfl_uvel_max              =   4.5752007416521E-03
(PID.TID 0000.0001) %MON advcfl_vvel_max              =   0.0000000000000E+00
(PID.TID 0000.0001) %MON advcfl_wvel_max              =   0.0000000000000E+00
(PID.TID 0000.0001) %MON advcfl_W_hf_max              =   0.0000000000000E+00
(PID.TID 0000.0001) %MON pe_b_mean                    =   0.0000000000000E+00
(PID.TID 0000.0001) %MON ke_max                       =   8.0757954577213E-03
(PID.TID 0000.0001) %MON ke_mean                      =   2.0649827015589E-04
(PID.TID 0000.0001) %MON ke_vol                       =   5.0981346415358E+14
(PID.TID 0000.0001) // =======================================================
(PID.TID 0000.0001) // End MONITOR dynamic field statistics
(PID.TID 0000.0001) // =======================================================
(PID.TID 0000.0001) SOLVE_FOR_PRESSURE: putPmEinXvector =    F
 cg2d: Sum(rhs),rhsMax =  -2.42542802248585E-16  7.84478485396824E-01
(PID.TID 0000.0001)                    cg2d_init_res =    1.84632981170703E+00
(PID.TID 0000.0001)                       cg2d_iters =    28
(PID.TID 0000.0001)                         cg2d_res =    4.10145676628236E-15
(PID.TID 0000.0001) // =======================================================
(PID.TID 0000.0001) // Begin MONITOR dynamic field statistics
(PID.TID 0000.0001) // =======================================================
(PID.TID 0000.0001) %MON time_tsnumber                =                     1
(PID.TID 0000.0001) %MON time_secondsf                =   3.6000000000000E+03
(PID.TID 0000.0001) %MON dynstat_eta_max              =   2.6931460151444E-01
(PID.TID 0000.0001) %MON dynstat_eta_min              =  -7.6771771361424E-02
(PID.TID 0000.0001) %MON dynstat_eta_mean             =   2.7592976888021E-16
(PID.TID 0000.0001) %MON dynstat_eta_sd               =   9.6792993958634E-02
(PID.TID 0000.0001) %MON dynstat_eta_del2             =   5.2210367225506E-03
(PID.TID 0000.0001) %MON dynstat_uvel_max             =   1.2708190064387E-01
(PID.TID 0000.0001) %MON dynstat_uvel_min             =  -1.2708190064387E-01
(PID.TID 0000.0001) %MON dynstat_uvel_mean            =  -5.6067134589115E-06
(PID.TID 0000.0001) %MON dynstat_uvel_sd              =   2.0322249914812E-02
(PID.TID 0000.0001) %MON dynstat_uvel_del2            =   5.0509041366132E-04
(PID.TID 0000.0001) %MON dynstat_vvel_max             =   9.2876133483272E-03
(PID.TID 0000.0001) %MON dynstat_vvel_min             =  -1.0028149377893E-02
(PID.TID 0000.0001) %MON dynstat_vvel_mean            =   4.7877125289136E-04
(PID.TID 0000.0001) %MON dynstat_vvel_sd              =   5.0967848889294E-03
(PID.TID 0000.0001) %MON dynstat_vvel_del2            =   3.6844455694336E-05
(PID.TID 0000.0001) %MON dynstat_wvel_max             =   7.4809611531787E-05
(PID.TID 0000.0001) %MON dynstat_wvel_min             =  -2.1325492044839E-05
(PID.TID 0000.0001) %MON dynstat_wvel_mean            =   3.0762417435869E-23
(PID.TID 0000.0001) %MON dynstat_wvel_sd              =   1.7338367110351E-05
(PID.TID 0000.0001) %MON dynstat_wvel_del2            =   3.0975995090818E-07
(PID.TID 0000.0001) %MON dynstat_theta_max            =   1.3324572123906E+01
(PID.TID 0000.0001) %MON dynstat_theta_min            =   6.2538231167499E+00
(PID.TID 0000.0001) %MON dynstat_theta_mean           =   8.4642401720337E+00
(PID.TID 0000.0001) %MON dynstat_theta_sd             =   1.4059932798163E+00
(PID.TID 0000.0001) %MON dynstat_theta_del2           =   7.4181238098896E-03
(PID.TID 0000.0001) %MON dynstat_salt_max             =   1.1996534269619E+01
(PID.TID 0000.0001) %MON dynstat_salt_min             =   1.0464446038912E+01
(PID.TID 0000.0001) %MON dynstat_salt_mean            =   1.1308841661162E+01
(PID.TID 0000.0001) %MON dynstat_salt_sd              =   5.1721897372483E-01
(PID.TID 0000.0001) %MON dynstat_salt_del2            =   5.6435949956916E-04
(PID.TID 0000.0001) %MON advcfl_uvel_max              =   4.5749484231792E-03
(PID.TID 0000.0001) %MON advcfl_vvel_max              =   3.6101337760413E-04
(PID.TID 0000.0001) %MON advcfl_wvel_max              =   2.6931460151443E-02
(PID.TID 0000.0001) %MON advcfl_W_hf_max              =   1.3422655951557E-02
(PID.TID 0000.0001) %MON pe_b_mean                    =   2.7041875712792E-05
(PID.TID 0000.0001) %MON ke_max                       =   8.0898330519274E-03
(PID.TID 0000.0001) %MON ke_mean                      =   2.1908618334722E-04
(PID.TID 0000.0001) %MON ke_vol                       =   5.0981346415358E+14
(PID.TID 0000.0001) // =======================================================
(PID.TID 0000.0001) // End MONITOR dynamic field statistics
(PID.TID 0000.0001) // =======================================================
 Computing Diagnostic #     23  ETAN         Counter:       1   Parms: SM      M1      
 Computing Diagnostic #     24  ETANSQ       Counter:       1   Parms: SM P    M1      
 Computing Diagnostic #     25  DETADT2      Counter:       1   Parms: SM      M1      
 Computing Diagnostic #     69  PHIBOT       Counter:       1   Parms: SM      M1      
 Computing Diagnostic #     70  PHIBOTSQ     Counter:       1   Parms: SM P    M1      
 Computing Diagnostic #     71  MXLDEPTH     Counter:       1   Parms: SM      M1      
 Computing Diagnostic #    190  GM_BVPcW     Counter:       1   Parms: SU P    M1      
 Computing Diagnostic #    191  GM_BVPcS     Counter:       1   Parms: SV P    M1      
 Computing Diagnostic #     72  DRHODR       Counter:       1   Parms: SM      LR      
 Computing Diagnostic #     62  RHOAnoma     Counter:       1   Parms: SMR     MR      
 Computing Diagnostic #    182  GM_Kwy       Counter:       1   Parms: VM      LR      
           Vector  Mate for  GM_Kwy       Diagnostic #    181  GM_Kwx   not enabled
 Computing Diagnostic #    183  GM_Kwz       Counter:       1   Parms: WM P    LR      
 Computing Diagnostic #    178  GM_Kvy       Counter:       1   Parms: VV P    MR      
           Vector  Mate for  GM_Kvy       Diagnostic #    177  GM_Kux   not enabled
 Computing Diagnostic #     26  THETA        Counter:       1   Parms: SMR     MR      
 Computing Diagnostic #    185  GM_PsiY      Counter:       1   Parms: VV      LR      
           Vector  Mate for  GM_PsiY      Diagnostic #    184  GM_PsiX  not enabled
 Computing Diagnostic #    180  GM_Kvz       Counter:       1   Parms: VV      MR      
           Vector  Mate for  GM_Kvz       Diagnostic #    179  GM_Kuz   not enabled
 cg2d: Sum(rhs),rhsMax =  -3.84761666971656E-15  9.91858713476361E-01
(PID.TID 0000.0001)                    cg2d_init_res =    4.11614923832726E-01
(PID.TID 0000.0001)                       cg2d_iters =    28
(PID.TID 0000.0001)                         cg2d_res =    2.62888494414267E-16
(PID.TID 0000.0001) // =======================================================
(PID.TID 0000.0001) // Begin MONITOR dynamic field statistics
(PID.TID 0000.0001) // =======================================================
(PID.TID 0000.0001) %MON time_tsnumber                =                     2
(PID.TID 0000.0001) %MON time_secondsf                =   7.2000000000000E+03
(PID.TID 0000.0001) %MON dynstat_eta_max              =   4.0024492842530E-01
(PID.TID 0000.0001) %MON dynstat_eta_min              =  -9.7665897992305E-02
(PID.TID 0000.0001) %MON dynstat_eta_mean             =   6.9777170817057E-16
(PID.TID 0000.0001) %MON dynstat_eta_sd               =   1.5214515594164E-01
(PID.TID 0000.0001) %MON dynstat_eta_del2             =   6.3123240285136E-03
(PID.TID 0000.0001) %MON dynstat_uvel_max             =   1.2417841485456E-01
(PID.TID 0000.0001) %MON dynstat_uvel_min             =  -1.2452023978655E-01
(PID.TID 0000.0001) %MON dynstat_uvel_mean            =   2.5984572113800E-04
(PID.TID 0000.0001) %MON dynstat_uvel_sd              =   1.9217061404394E-02
(PID.TID 0000.0001) %MON dynstat_uvel_del2            =   5.0654330806929E-04
(PID.TID 0000.0001) %MON dynstat_vvel_max             =   8.4004130147100E-03
(PID.TID 0000.0001) %MON dynstat_vvel_min             =  -9.5134067324835E-03
(PID.TID 0000.0001) %MON dynstat_vvel_mean            =   3.0177690872461E-04
(PID.TID 0000.0001) %MON dynstat_vvel_sd              =   4.6536351723424E-03
(PID.TID 0000.0001) %MON dynstat_vvel_del2            =   6.7809804579674E-05
(PID.TID 0000.0001) %MON dynstat_wvel_max             =   4.3770768154866E-05
(PID.TID 0000.0001) %MON dynstat_wvel_min             =  -1.4648008122543E-05
(PID.TID 0000.0001) %MON dynstat_wvel_mean            =  -1.2304966974348E-22
(PID.TID 0000.0001) %MON dynstat_wvel_sd              =   1.2310634210849E-05
(PID.TID 0000.0001) %MON dynstat_wvel_del2            =   2.6594065600837E-07
(PID.TID 0000.0001) %MON dynstat_theta_max            =   1.3324439325281E+01
(PID.TID 0000.0001) %MON dynstat_theta_min            =   6.2538305570751E+00
(PID.TID 0000.0001) %MON dynstat_theta_mean           =   8.4641424072252E+00
(PID.TID 0000.0001) %MON dynstat_theta_sd             =   1.4057880101806E+00
(PID.TID 0000.0001) %MON dynstat_theta_del2           =   7.4136925174365E-03
(PID.TID 0000.0001) %MON dynstat_salt_max             =   1.1996536583567E+01
(PID.TID 0000.0001) %MON dynstat_salt_min             =   1.0464448749242E+01
(PID.TID 0000.0001) %MON dynstat_salt_mean            =   1.1308818039281E+01
(PID.TID 0000.0001) %MON dynstat_salt_sd              =   5.1720192903599E-01
(PID.TID 0000.0001) %MON dynstat_salt_del2            =   5.6440215114497E-04
(PID.TID 0000.0001) %MON advcfl_uvel_max              =   4.4827286323158E-03
(PID.TID 0000.0001) %MON advcfl_vvel_max              =   3.4248264236941E-04
(PID.TID 0000.0001) %MON advcfl_wvel_max              =   1.3268753725327E-02
(PID.TID 0000.0001) %MON advcfl_W_hf_max              =   7.6031306780122E-03
(PID.TID 0000.0001) %MON pe_b_mean                    =   6.6813654166101E-05
(PID.TID 0000.0001) %MON ke_max                       =   7.7622401701575E-03
(PID.TID 0000.0001) %MON ke_mean                      =   1.9512865981754E-04
(PID.TID 0000.0001) %MON ke_vol                       =   5.0981346415358E+14
(PID.TID 0000.0001) // =======================================================
(PID.TID 0000.0001) // End MONITOR dynamic field statistics
(PID.TID 0000.0001) // =======================================================
 cg2d: Sum(rhs),rhsMax =  -8.23646706393788E-15  9.55437629347567E-01
(PID.TID 0000.0001)                    cg2d_init_res =    1.49757568937336E-01
(PID.TID 0000.0001)                       cg2d_iters =    27
(PID.TID 0000.0001)                         cg2d_res =    5.77809979341847E-14
(PID.TID 0000.0001) // =======================================================
(PID.TID 0000.0001) // Begin MONITOR dynamic field statistics
(PID.TID 0000.0001) // =======================================================
(PID.TID 0000.0001) %MON time_tsnumber                =                     3
(PID.TID 0000.0001) %MON time_secondsf                =   1.0800000000000E+04
(PID.TID 0000.0001) %MON dynstat_eta_max              =   4.1112991172174E-01
(PID.TID 0000.0001) %MON dynstat_eta_min              =  -1.1122682746855E-01
(PID.TID 0000.0001) %MON dynstat_eta_mean             =   8.6021423339844E-16
(PID.TID 0000.0001) %MON dynstat_eta_sd               =   1.6156466009207E-01
(PID.TID 0000.0001) %MON dynstat_eta_del2             =   5.9248945053409E-03
(PID.TID 0000.0001) %MON dynstat_uvel_max             =   1.2631357331183E-01
(PID.TID 0000.0001) %MON dynstat_uvel_min             =  -1.2696391043947E-01
(PID.TID 0000.0001) %MON dynstat_uvel_mean            =   3.2777726225182E-04
(PID.TID 0000.0001) %MON dynstat_uvel_sd              =   1.9426833057906E-02
(PID.TID 0000.0001) %MON dynstat_uvel_del2            =   5.2916363215002E-04
(PID.TID 0000.0001) %MON dynstat_vvel_max             =   1.2511253188596E-02
(PID.TID 0000.0001) %MON dynstat_vvel_min             =  -1.3736664624735E-02
(PID.TID 0000.0001) %MON dynstat_vvel_mean            =  -1.8273536715506E-04
(PID.TID 0000.0001) %MON dynstat_vvel_sd              =   2.4645424297489E-03
(PID.TID 0000.0001) %MON dynstat_vvel_del2            =   9.5806566725182E-05
(PID.TID 0000.0001) %MON dynstat_wvel_max             =   2.5487736663212E-05
(PID.TID 0000.0001) %MON dynstat_wvel_min             =  -2.0672486553476E-05
(PID.TID 0000.0001) %MON dynstat_wvel_mean            =   7.6906043589672E-23
(PID.TID 0000.0001) %MON dynstat_wvel_sd              =   8.2297217836769E-06
(PID.TID 0000.0001) %MON dynstat_wvel_del2            =   3.4609763563946E-07
(PID.TID 0000.0001) %MON dynstat_theta_max            =   1.3324516169256E+01
(PID.TID 0000.0001) %MON dynstat_theta_min            =   6.2538410716253E+00
(PID.TID 0000.0001) %MON dynstat_theta_mean           =   8.4641181352850E+00
(PID.TID 0000.0001) %MON dynstat_theta_sd             =   1.4057440898504E+00
(PID.TID 0000.0001) %MON dynstat_theta_del2           =   7.4121633281229E-03
(PID.TID 0000.0001) %MON dynstat_salt_max             =   1.1996543013667E+01
(PID.TID 0000.0001) %MON dynstat_salt_min             =   1.0464137635493E+01
(PID.TID 0000.0001) %MON dynstat_salt_mean            =   1.1308801675723E+01
(PID.TID 0000.0001) %MON dynstat_salt_sd              =   5.1719412630637E-01
(PID.TID 0000.0001) %MON dynstat_salt_del2            =   5.6451242991069E-04
(PID.TID 0000.0001) %MON advcfl_uvel_max              =   4.5707007758211E-03
(PID.TID 0000.0001) %MON advcfl_vvel_max              =   4.9451992649045E-04
(PID.TID 0000.0001) %MON advcfl_wvel_max              =   3.4895014481500E-03
(PID.TID 0000.0001) %MON advcfl_W_hf_max              =   2.8926628509331E-03
(PID.TID 0000.0001) %MON pe_b_mean                    =   7.5342791656424E-05
(PID.TID 0000.0001) %MON ke_max                       =   8.1135516912382E-03
(PID.TID 0000.0001) %MON ke_mean                      =   1.9168854082711E-04
(PID.TID 0000.0001) %MON ke_vol                       =   5.0981346415358E+14
(PID.TID 0000.0001) // =======================================================
(PID.TID 0000.0001) // End MONITOR dynamic field statistics
(PID.TID 0000.0001) // =======================================================
 cg2d: Sum(rhs),rhsMax =  -1.08871245352304E-14  9.20948317129408E-01
(PID.TID 0000.0001)                    cg2d_init_res =    9.13385628771145E-02
(PID.TID 0000.0001)                       cg2d_iters =    28
(PID.TID 0000.0001)                         cg2d_res =    3.22871894555934E-16
(PID.TID 0000.0001) // =======================================================
(PID.TID 0000.0001) // Begin MONITOR dynamic field statistics
(PID.TID 0000.0001) // =======================================================
(PID.TID 0000.0001) %MON time_tsnumber                =                     4
(PID.TID 0000.0001) %MON time_secondsf                =   1.4400000000000E+04
(PID.TID 0000.0001) %MON dynstat_eta_max              =   3.8573328169676E-01
(PID.TID 0000.0001) %MON dynstat_eta_min              =  -9.9988409566768E-02
(PID.TID 0000.0001) %MON dynstat_eta_mean             =   8.7102254231771E-16
(PID.TID 0000.0001) %MON dynstat_eta_sd               =   1.5004069217774E-01
(PID.TID 0000.0001) %MON dynstat_eta_del2             =   5.7531056201574E-03
(PID.TID 0000.0001) %MON dynstat_uvel_max             =   1.3067323396191E-01
(PID.TID 0000.0001) %MON dynstat_uvel_min             =  -1.3181674549258E-01
(PID.TID 0000.0001) %MON dynstat_uvel_mean            =   1.6324286286249E-04
(PID.TID 0000.0001) %MON dynstat_uvel_sd              =   2.0054771648318E-02
(PID.TID 0000.0001) %MON dynstat_uvel_del2            =   5.5668265734733E-04
(PID.TID 0000.0001) %MON dynstat_vvel_max             =   1.5522576299945E-02
(PID.TID 0000.0001) %MON dynstat_vvel_min             =  -1.7357766700799E-02
(PID.TID 0000.0001) %MON dynstat_vvel_mean            =  -4.1070500873465E-04
(PID.TID 0000.0001) %MON dynstat_vvel_sd              =   2.2206846087010E-03
(PID.TID 0000.0001) %MON dynstat_vvel_del2            =   1.1323410182623E-04
(PID.TID 0000.0001) %MON dynstat_wvel_max             =   2.1936447063828E-05
(PID.TID 0000.0001) %MON dynstat_wvel_min             =  -3.1366080072395E-05
(PID.TID 0000.0001) %MON dynstat_wvel_mean            =  -3.0762417435869E-23
(PID.TID 0000.0001) %MON dynstat_wvel_sd              =   9.2387242707936E-06
(PID.TID 0000.0001) %MON dynstat_wvel_del2            =   4.2780233858635E-07
(PID.TID 0000.0001) %MON dynstat_theta_max            =   1.3324657218855E+01
(PID.TID 0000.0001) %MON dynstat_theta_min            =   6.2538428167706E+00
(PID.TID 0000.0001) %MON dynstat_theta_mean           =   8.4641312388816E+00
(PID.TID 0000.0001) %MON dynstat_theta_sd             =   1.4057721036431E+00
(PID.TID 0000.0001) %MON dynstat_theta_del2           =   7.4101742101266E-03
(PID.TID 0000.0001) %MON dynstat_salt_max             =   1.1996550675724E+01
(PID.TID 0000.0001) %MON dynstat_salt_min             =   1.0463921341172E+01
(PID.TID 0000.0001) %MON dynstat_salt_mean            =   1.1308801394149E+01
(PID.TID 0000.0001) %MON dynstat_salt_sd              =   5.1718894874172E-01
(PID.TID 0000.0001) %MON dynstat_salt_del2            =   5.6467214324111E-04
(PID.TID 0000.0001) %MON advcfl_uvel_max              =   4.7454028377330E-03
(PID.TID 0000.0001) %MON advcfl_vvel_max              =   6.2487960122875E-04
(PID.TID 0000.0001) %MON advcfl_wvel_max              =   3.4512761819459E-03
(PID.TID 0000.0001) %MON advcfl_W_hf_max              =   3.6751931669332E-03
(PID.TID 0000.0001) %MON pe_b_mean                    =   6.4978111265561E-05
(PID.TID 0000.0001) %MON ke_max                       =   8.7775518659406E-03
(PID.TID 0000.0001) %MON ke_mean                      =   2.0356029063776E-04
(PID.TID 0000.0001) %MON ke_vol                       =   5.0981346415358E+14
(PID.TID 0000.0001) // =======================================================
(PID.TID 0000.0001) // End MONITOR dynamic field statistics
(PID.TID 0000.0001) // =======================================================
 cg2d: Sum(rhs),rhsMax =  -1.14561138353508E-14  9.03627387833142E-01
(PID.TID 0000.0001)                    cg2d_init_res =    8.17325954510500E-02
(PID.TID 0000.0001)                       cg2d_iters =    28
(PID.TID 0000.0001)                         cg2d_res =    2.31137920543522E-16
(PID.TID 0000.0001) // =======================================================
(PID.TID 0000.0001) // Begin MONITOR dynamic field statistics
(PID.TID 0000.0001) // =======================================================
(PID.TID 0000.0001) %MON time_tsnumber                =                     5
(PID.TID 0000.0001) %MON time_secondsf                =   1.8000000000000E+04
(PID.TID 0000.0001) %MON dynstat_eta_max              =   3.6043276778197E-01
(PID.TID 0000.0001) %MON dynstat_eta_min              =  -7.8084070080311E-02
(PID.TID 0000.0001) %MON dynstat_eta_mean             =   1.1933644612630E-15
(PID.TID 0000.0001) %MON dynstat_eta_sd               =   1.3661356378284E-01
(PID.TID 0000.0001) %MON dynstat_eta_del2             =   5.7478289586688E-03
(PID.TID 0000.0001) %MON dynstat_uvel_max             =   1.3517644947788E-01
(PID.TID 0000.0001) %MON dynstat_uvel_min             =  -1.3697049914025E-01
(PID.TID 0000.0001) %MON dynstat_uvel_mean            =  -2.7348828700340E-05
(PID.TID 0000.0001) %MON dynstat_uvel_sd              =   2.0648248738343E-02
(PID.TID 0000.0001) %MON dynstat_uvel_del2            =   5.8479181758223E-04
(PID.TID 0000.0001) %MON dynstat_vvel_max             =   1.6021766900784E-02
(PID.TID 0000.0001) %MON dynstat_vvel_min             =  -1.7770239333549E-02
(PID.TID 0000.0001) %MON dynstat_vvel_mean            =  -2.7386519335407E-04
(PID.TID 0000.0001) %MON dynstat_vvel_sd              =   2.5233523569789E-03
(PID.TID 0000.0001) %MON dynstat_vvel_del2            =   1.2165297549484E-04
(PID.TID 0000.0001) %MON dynstat_wvel_max             =   2.1171215215044E-05
(PID.TID 0000.0001) %MON dynstat_wvel_min             =  -3.4171372341195E-05
(PID.TID 0000.0001) %MON dynstat_wvel_mean            =   3.8453021794836E-22
(PID.TID 0000.0001) %MON dynstat_wvel_sd              =   9.9428241014824E-06
(PID.TID 0000.0001) %MON dynstat_wvel_del2            =   4.7847364491220E-07
(PID.TID 0000.0001) %MON dynstat_theta_max            =   1.3324789818472E+01
(PID.TID 0000.0001) %MON dynstat_theta_min            =   6.2538382430795E+00
(PID.TID 0000.0001) %MON dynstat_theta_mean           =   8.4641467766815E+00
(PID.TID 0000.0001) %MON dynstat_theta_sd             =   1.4058015351955E+00
(PID.TID 0000.0001) %MON dynstat_theta_del2           =   7.4075611129130E-03
(PID.TID 0000.0001) %MON dynstat_salt_max             =   1.1996558173479E+01
(PID.TID 0000.0001) %MON dynstat_salt_min             =   1.0463518243564E+01
(PID.TID 0000.0001) %MON dynstat_salt_mean            =   1.1308809435868E+01
(PID.TID 0000.0001) %MON dynstat_salt_sd              =   5.1718146577984E-01
(PID.TID 0000.0001) %MON dynstat_salt_del2            =   5.6472629129529E-04
(PID.TID 0000.0001) %MON advcfl_uvel_max              =   4.9309379690489E-03
(PID.TID 0000.0001) %MON advcfl_vvel_max              =   6.3972861600777E-04
(PID.TID 0000.0001) %MON advcfl_wvel_max              =   3.8457864150622E-03
(PID.TID 0000.0001) %MON advcfl_W_hf_max              =   4.0840130135849E-03
(PID.TID 0000.0001) %MON pe_b_mean                    =   5.3868713891653E-05
(PID.TID 0000.0001) %MON ke_max                       =   9.4728250123477E-03
(PID.TID 0000.0001) %MON ke_mean                      =   2.1627026717816E-04
(PID.TID 0000.0001) %MON ke_vol                       =   5.0981346415358E+14
(PID.TID 0000.0001) // =======================================================
(PID.TID 0000.0001) // End MONITOR dynamic field statistics
(PID.TID 0000.0001) // =======================================================
 Compute Stats, Diag. #     23  ETAN      vol(   0 ): 1.500E+12  Parms: SM      M1      
 Compute Stats, Diag. #     30  UVEL      vol(   0 ): 2.549E+15  Parms: UUR     MR      
 Compute Stats, Diag. #     31  VVEL      vol(   0 ): 2.449E+15  Parms: VVR     MR      
 Compute Stats, Diag. #     32  WVEL      vol(   0 ): 2.422E+15  Parms: WM      LR      
 Compute Stats, Diag. #     26  THETA     vol(   0 ): 2.549E+15  Parms: SMR     MR      
 Compute Stats, Diag. #     71  MXLDEPTH  vol(   0 ): 1.500E+12  Parms: SM      M1      
 Compute Stats, Diag. #    182  GM_Kwy    vol(   0 ): 2.422E+15  Parms: VM      LR      
 Compute Stats, Diag. #    183  GM_Kwz    vol(   0 ): 2.422E+15  Parms: WM P    LR      
 Compute Stats, Diag. #    178  GM_Kvy    vol(   0 ): 2.449E+15  Parms: VV P    MR      
 Compute Stats, Diag. #    185  GM_PsiY   vol(   0 ): 2.330E+15  Parms: VV      LR      
 Compute Stats, Diag. #    180  GM_Kvz    vol(   0 ): 2.449E+15  Parms: VV      MR      
 cg2d: Sum(rhs),rhsMax =  -1.47902523561783E-14  8.95729183527845E-01
(PID.TID 0000.0001)                    cg2d_init_res =    5.02609722506588E-02
(PID.TID 0000.0001)                       cg2d_iters =    28
(PID.TID 0000.0001)                         cg2d_res =    2.32884267744983E-16
(PID.TID 0000.0001) // =======================================================
(PID.TID 0000.0001) // Begin MONITOR dynamic field statistics
(PID.TID 0000.0001) // =======================================================
(PID.TID 0000.0001) %MON time_tsnumber                =                     6
(PID.TID 0000.0001) %MON time_secondsf                =   2.1600000000000E+04
(PID.TID 0000.0001) %MON dynstat_eta_max              =   3.4768768581432E-01
(PID.TID 0000.0001) %MON dynstat_eta_min              =  -8.0535377335138E-02
(PID.TID 0000.0001) %MON dynstat_eta_mean             =   1.6574859619141E-15
(PID.TID 0000.0001) %MON dynstat_eta_sd               =   1.2997353807835E-01
(PID.TID 0000.0001) %MON dynstat_eta_del2             =   5.7557485729967E-03
(PID.TID 0000.0001) %MON dynstat_uvel_max             =   1.3922943619138E-01
(PID.TID 0000.0001) %MON dynstat_uvel_min             =  -1.4150328449979E-01
(PID.TID 0000.0001) %MON dynstat_uvel_mean            =  -9.4377145353301E-05
(PID.TID 0000.0001) %MON dynstat_uvel_sd              =   2.1166521394576E-02
(PID.TID 0000.0001) %MON dynstat_uvel_del2            =   6.1199393004123E-04
(PID.TID 0000.0001) %MON dynstat_vvel_max             =   1.4767636227219E-02
(PID.TID 0000.0001) %MON dynstat_vvel_min             =  -1.5755038183641E-02
(PID.TID 0000.0001) %MON dynstat_vvel_mean            =   1.2724796419092E-05
(PID.TID 0000.0001) %MON dynstat_vvel_sd              =   2.0673793123640E-03
(PID.TID 0000.0001) %MON dynstat_vvel_del2            =   1.2128901303959E-04
(PID.TID 0000.0001) %MON dynstat_wvel_max             =   2.0378231221390E-05
(PID.TID 0000.0001) %MON dynstat_wvel_min             =  -3.1654545592013E-05
(PID.TID 0000.0001) %MON dynstat_wvel_mean            =  -9.2287252307606E-23
(PID.TID 0000.0001) %MON dynstat_wvel_sd              =   9.0568562512069E-06
(PID.TID 0000.0001) %MON dynstat_wvel_del2            =   5.0130166641524E-07
(PID.TID 0000.0001) %MON dynstat_theta_max            =   1.3324910727969E+01
(PID.TID 0000.0001) %MON dynstat_theta_min            =   6.2538338193778E+00
(PID.TID 0000.0001) %MON dynstat_theta_mean           =   8.4641560981963E+00
(PID.TID 0000.0001) %MON dynstat_theta_sd             =   1.4058185496588E+00
(PID.TID 0000.0001) %MON dynstat_theta_del2           =   7.4050094166426E-03
(PID.TID 0000.0001) %MON dynstat_salt_max             =   1.1996565391469E+01
(PID.TID 0000.0001) %MON dynstat_salt_min             =   1.0463603668810E+01
(PID.TID 0000.0001) %MON dynstat_salt_mean            =   1.1308816346904E+01
(PID.TID 0000.0001) %MON dynstat_salt_sd              =   5.1717270840796E-01
(PID.TID 0000.0001) %MON dynstat_salt_del2            =   5.6482035424365E-04
(PID.TID 0000.0001) %MON advcfl_uvel_max              =   5.0941182419925E-03
(PID.TID 0000.0001) %MON advcfl_vvel_max              =   5.6718137461107E-04
(PID.TID 0000.0001) %MON advcfl_wvel_max              =   3.3541253904110E-03
(PID.TID 0000.0001) %MON advcfl_W_hf_max              =   3.5925580454235E-03
(PID.TID 0000.0001) %MON pe_b_mean                    =   4.8759455588450E-05
(PID.TID 0000.0001) %MON ke_max                       =   1.0080762879160E-02
(PID.TID 0000.0001) %MON ke_mean                      =   2.2606854919519E-04
(PID.TID 0000.0001) %MON ke_vol                       =   5.0981346415358E+14
(PID.TID 0000.0001) // =======================================================
(PID.TID 0000.0001) // End MONITOR dynamic field statistics
(PID.TID 0000.0001) // =======================================================
 cg2d: Sum(rhs),rhsMax =  -2.13197515197550E-14  8.95791880995293E-01
(PID.TID 0000.0001)                    cg2d_init_res =    8.22024928933770E-03
(PID.TID 0000.0001)                       cg2d_iters =    28
(PID.TID 0000.0001)                         cg2d_res =    1.71057824789647E-16
(PID.TID 0000.0001) // =======================================================
(PID.TID 0000.0001) // Begin MONITOR dynamic field statistics
(PID.TID 0000.0001) // =======================================================
(PID.TID 0000.0001) %MON time_tsnumber                =                     7
(PID.TID 0000.0001) %MON time_secondsf                =   2.5200000000000E+04
(PID.TID 0000.0001) %MON dynstat_eta_max              =   3.4740303487179E-01
(PID.TID 0000.0001) %MON dynstat_eta_min              =  -8.0830827282479E-02
(PID.TID 0000.0001) %MON dynstat_eta_mean             =   1.7086664835612E-15
(PID.TID 0000.0001) %MON dynstat_eta_sd               =   1.2984327761360E-01
(PID.TID 0000.0001) %MON dynstat_eta_del2             =   5.7568217875414E-03
(PID.TID 0000.0001) %MON dynstat_uvel_max             =   1.4249385184756E-01
(PID.TID 0000.0001) %MON dynstat_uvel_min             =  -1.4486212938526E-01
(PID.TID 0000.0001) %MON dynstat_uvel_mean            =  -3.0337813209784E-05
(PID.TID 0000.0001) %MON dynstat_uvel_sd              =   2.1551591803057E-02
(PID.TID 0000.0001) %MON dynstat_uvel_del2            =   6.3564816180556E-04
(PID.TID 0000.0001) %MON dynstat_vvel_max             =   1.2085820007365E-02
(PID.TID 0000.0001) %MON dynstat_vvel_min             =  -1.2157825075667E-02
(PID.TID 0000.0001) %MON dynstat_vvel_mean            =   2.2694098830280E-04
(PID.TID 0000.0001) %MON dynstat_vvel_sd              =   1.4724664093412E-03
(PID.TID 0000.0001) %MON dynstat_vvel_del2            =   1.1389251403088E-04
(PID.TID 0000.0001) %MON dynstat_wvel_max             =   2.1352238896452E-05
(PID.TID 0000.0001) %MON dynstat_wvel_min             =  -2.6679508431551E-05
(PID.TID 0000.0001) %MON dynstat_wvel_mean            =   1.0766846102554E-22
(PID.TID 0000.0001) %MON dynstat_wvel_sd              =   7.5629186640074E-06
(PID.TID 0000.0001) %MON dynstat_wvel_del2            =   5.0121303867934E-07
(PID.TID 0000.0001) %MON dynstat_theta_max            =   1.3324995896519E+01
(PID.TID 0000.0001) %MON dynstat_theta_min            =   6.2538334604756E+00
(PID.TID 0000.0001) %MON dynstat_theta_mean           =   8.4641583083460E+00
(PID.TID 0000.0001) %MON dynstat_theta_sd             =   1.4058223118905E+00
(PID.TID 0000.0001) %MON dynstat_theta_del2           =   7.4028283508130E-03
(PID.TID 0000.0001) %MON dynstat_salt_max             =   1.1996571328587E+01
(PID.TID 0000.0001) %MON dynstat_salt_min             =   1.0463559611886E+01
(PID.TID 0000.0001) %MON dynstat_salt_mean            =   1.1308818304647E+01
(PID.TID 0000.0001) %MON dynstat_salt_sd              =   5.1716430644349E-01
(PID.TID 0000.0001) %MON dynstat_salt_del2            =   5.6485882320478E-04
(PID.TID 0000.0001) %MON advcfl_uvel_max              =   5.2150366578695E-03
(PID.TID 0000.0001) %MON advcfl_vvel_max              =   4.3768170272401E-04
(PID.TID 0000.0001) %MON advcfl_wvel_max              =   2.6134894851465E-03
(PID.TID 0000.0001) %MON advcfl_W_hf_max              =   2.8330489489883E-03
(PID.TID 0000.0001) %MON pe_b_mean                    =   4.8661770371680E-05
(PID.TID 0000.0001) %MON ke_max                       =   1.0531134413233E-02
(PID.TID 0000.0001) %MON ke_mean                      =   2.3330231164130E-04
(PID.TID 0000.0001) %MON ke_vol                       =   5.0981346415358E+14
(PID.TID 0000.0001) // =======================================================
(PID.TID 0000.0001) // End MONITOR dynamic field statistics
(PID.TID 0000.0001) // =======================================================
 cg2d: Sum(rhs),rhsMax =  -2.29191665646056E-14  9.00249216359003E-01
(PID.TID 0000.0001)                    cg2d_init_res =    2.22082109299497E-02
(PID.TID 0000.0001)                       cg2d_iters =    28
(PID.TID 0000.0001)                         cg2d_res =    3.60266560496805E-16
(PID.TID 0000.0001) // =======================================================
(PID.TID 0000.0001) // Begin MONITOR dynamic field statistics
(PID.TID 0000.0001) // =======================================================
(PID.TID 0000.0001) %MON time_tsnumber                =                     8
(PID.TID 0000.0001) %MON time_secondsf                =   2.8800000000000E+04
(PID.TID 0000.0001) %MON dynstat_eta_max              =   3.5340473178583E-01
(PID.TID 0000.0001) %MON dynstat_eta_min              =  -8.1070141876810E-02
(PID.TID 0000.0001) %MON dynstat_eta_mean             =   2.0472208658854E-15
(PID.TID 0000.0001) %MON dynstat_eta_sd               =   1.3292124709520E-01
(PID.TID 0000.0001) %MON dynstat_eta_del2             =   5.7575185864607E-03
(PID.TID 0000.0001) %MON dynstat_uvel_max             =   1.4468167086159E-01
(PID.TID 0000.0001) %MON dynstat_uvel_min             =  -1.4681981217891E-01
(PID.TID 0000.0001) %MON dynstat_uvel_mean            =   9.3336790331007E-05
(PID.TID 0000.0001) %MON dynstat_uvel_sd              =   2.1762896611159E-02
(PID.TID 0000.0001) %MON dynstat_uvel_del2            =   6.5323268488309E-04
(PID.TID 0000.0001) %MON dynstat_vvel_max             =   8.3295303743252E-03
(PID.TID 0000.0001) %MON dynstat_vvel_min             =  -7.8212285483640E-03
(PID.TID 0000.0001) %MON dynstat_vvel_mean            =   2.8045518468758E-04
(PID.TID 0000.0001) %MON dynstat_vvel_sd              =   1.0354670421036E-03
(PID.TID 0000.0001) %MON dynstat_vvel_del2            =   1.0287043370050E-04
(PID.TID 0000.0001) %MON dynstat_wvel_max             =   1.9982017892871E-05
(PID.TID 0000.0001) %MON dynstat_wvel_min             =  -2.0866926991383E-05
(PID.TID 0000.0001) %MON dynstat_wvel_mean            =  -1.2304966974348E-22
(PID.TID 0000.0001) %MON dynstat_wvel_sd              =   5.9584525912889E-06
(PID.TID 0000.0001) %MON dynstat_wvel_del2            =   4.8450113009234E-07
(PID.TID 0000.0001) %MON dynstat_theta_max            =   1.3325050163363E+01
(PID.TID 0000.0001) %MON dynstat_theta_min            =   6.2538360838959E+00
(PID.TID 0000.0001) %MON dynstat_theta_mean           =   8.4641557399770E+00
(PID.TID 0000.0001) %MON dynstat_theta_sd             =   1.4058171397120E+00
(PID.TID 0000.0001) %MON dynstat_theta_del2           =   7.4011661253954E-03
(PID.TID 0000.0001) %MON dynstat_salt_max             =   1.1996576078373E+01
(PID.TID 0000.0001) %MON dynstat_salt_min             =   1.0463584736331E+01
(PID.TID 0000.0001) %MON dynstat_salt_mean            =   1.1308816652370E+01
(PID.TID 0000.0001) %MON dynstat_salt_sd              =   5.1715635529979E-01
(PID.TID 0000.0001) %MON dynstat_salt_del2            =   5.6484144636487E-04
(PID.TID 0000.0001) %MON advcfl_uvel_max              =   5.2855132384407E-03
(PID.TID 0000.0001) %MON advcfl_vvel_max              =   2.9986309347571E-04
(PID.TID 0000.0001) %MON advcfl_wvel_max              =   2.1177726560878E-03
(PID.TID 0000.0001) %MON advcfl_W_hf_max              =   2.2713431659758E-03
(PID.TID 0000.0001) %MON pe_b_mean                    =   5.0996195807013E-05
(PID.TID 0000.0001) %MON ke_max                       =   1.0793328371370E-02
(PID.TID 0000.0001) %MON ke_mean                      =   2.3736904296387E-04
(PID.TID 0000.0001) %MON ke_vol                       =   5.0981346415358E+14
(PID.TID 0000.0001) // =======================================================
(PID.TID 0000.0001) // End MONITOR dynamic field statistics
(PID.TID 0000.0001) // =======================================================
 cg2d: Sum(rhs),rhsMax =  -2.63504496000877E-14  9.04562403964097E-01
(PID.TID 0000.0001)                    cg2d_init_res =    2.00021034900149E-02
(PID.TID 0000.0001)                       cg2d_iters =    28
(PID.TID 0000.0001)                         cg2d_res =    4.03754641558666E-16
(PID.TID 0000.0001) // =======================================================
(PID.TID 0000.0001) // Begin MONITOR dynamic field statistics
(PID.TID 0000.0001) // =======================================================
(PID.TID 0000.0001) %MON time_tsnumber                =                     9
(PID.TID 0000.0001) %MON time_secondsf                =   3.2400000000000E+04
(PID.TID 0000.0001) %MON dynstat_eta_max              =   3.5913182650365E-01
(PID.TID 0000.0001) %MON dynstat_eta_min              =  -8.2879707005131E-02
(PID.TID 0000.0001) %MON dynstat_eta_mean             =   2.0904541015625E-15
(PID.TID 0000.0001) %MON dynstat_eta_sd               =   1.3582160100209E-01
(PID.TID 0000.0001) %MON dynstat_eta_del2             =   5.7591659412089E-03
(PID.TID 0000.0001) %MON dynstat_uvel_max             =   1.4562331360940E-01
(PID.TID 0000.0001) %MON dynstat_uvel_min             =  -1.4742154725243E-01
(PID.TID 0000.0001) %MON dynstat_uvel_mean            =   2.0221219136761E-04
(PID.TID 0000.0001) %MON dynstat_uvel_sd              =   2.1799628243759E-02
(PID.TID 0000.0001) %MON dynstat_uvel_del2            =   6.6305041622593E-04
(PID.TID 0000.0001) %MON dynstat_vvel_max             =   4.2418357888723E-03
(PID.TID 0000.0001) %MON dynstat_vvel_min             =  -3.4374852657706E-03
(PID.TID 0000.0001) %MON dynstat_vvel_mean            =   1.9986415832966E-04
(PID.TID 0000.0001) %MON dynstat_vvel_sd              =   7.1797386597459E-04
(PID.TID 0000.0001) %MON dynstat_vvel_del2            =   9.2796865907551E-05
(PID.TID 0000.0001) %MON dynstat_wvel_max             =   1.6531546105559E-05
(PID.TID 0000.0001) %MON dynstat_wvel_min             =  -1.4766896317146E-05
(PID.TID 0000.0001) %MON dynstat_wvel_mean            =  -1.3843087846141E-22
(PID.TID 0000.0001) %MON dynstat_wvel_sd              =   4.6673509254658E-06
(PID.TID 0000.0001) %MON dynstat_wvel_del2            =   4.5913831453851E-07
(PID.TID 0000.0001) %MON dynstat_theta_max            =   1.3325068322304E+01
(PID.TID 0000.0001) %MON dynstat_theta_min            =   6.2538389681307E+00
(PID.TID 0000.0001) %MON dynstat_theta_mean           =   8.4641522124423E+00
(PID.TID 0000.0001) %MON dynstat_theta_sd             =   1.4058101554690E+00
(PID.TID 0000.0001) %MON dynstat_theta_del2           =   7.4001177151076E-03
(PID.TID 0000.0001) %MON dynstat_salt_max             =   1.1996579284532E+01
(PID.TID 0000.0001) %MON dynstat_salt_min             =   1.0463692278545E+01
(PID.TID 0000.0001) %MON dynstat_salt_mean            =   1.1308814309375E+01
(PID.TID 0000.0001) %MON dynstat_salt_sd              =   5.1714848795077E-01
(PID.TID 0000.0001) %MON dynstat_salt_del2            =   5.6490080919478E-04
(PID.TID 0000.0001) %MON advcfl_uvel_max              =   5.3071757010875E-03
(PID.TID 0000.0001) %MON advcfl_vvel_max              =   1.5270608839940E-04
(PID.TID 0000.0001) %MON advcfl_wvel_max              =   1.8396594813251E-03
(PID.TID 0000.0001) %MON advcfl_W_hf_max              =   1.9617262867017E-03
(PID.TID 0000.0001) %MON pe_b_mean                    =   5.3245959353405E-05
(PID.TID 0000.0001) %MON ke_max                       =   1.0870911157469E-02
(PID.TID 0000.0001) %MON ke_mean                      =   2.3789916336470E-04
(PID.TID 0000.0001) %MON ke_vol                       =   5.0981346415358E+14
(PID.TID 0000.0001) // =======================================================
(PID.TID 0000.0001) // End MONITOR dynamic field statistics
(PID.TID 0000.0001) // =======================================================
 cg2d: Sum(rhs),rhsMax =  -2.64926969251178E-14  9.06477011609202E-01
(PID.TID 0000.0001)                    cg2d_init_res =    6.85634288911153E-03
(PID.TID 0000.0001)                       cg2d_iters =    28
(PID.TID 0000.0001)                         cg2d_res =    3.67308460855549E-16
(PID.TID 0000.0001) // =======================================================
(PID.TID 0000.0001) // Begin MONITOR dynamic field statistics
(PID.TID 0000.0001) // =======================================================
(PID.TID 0000.0001) %MON time_tsnumber                =                    10
(PID.TID 0000.0001) %MON time_secondsf                =   3.6000000000000E+04
(PID.TID 0000.0001) %MON dynstat_eta_max              =   3.6118098052445E-01
(PID.TID 0000.0001) %MON dynstat_eta_min              =  -8.3566840510506E-02
(PID.TID 0000.0001) %MON dynstat_eta_mean             =   1.8882751464844E-15
(PID.TID 0000.0001) %MON dynstat_eta_sd               =   1.3681420883076E-01
(PID.TID 0000.0001) %MON dynstat_eta_del2             =   5.7604214777543E-03
(PID.TID 0000.0001) %MON dynstat_uvel_max             =   1.4528595932516E-01
(PID.TID 0000.0001) %MON dynstat_uvel_min             =  -1.4681302352798E-01
(PID.TID 0000.0001) %MON dynstat_uvel_mean            =   2.5510435022842E-04
(PID.TID 0000.0001) %MON dynstat_uvel_sd              =   2.1674026749744E-02
(PID.TID 0000.0001) %MON dynstat_uvel_del2            =   6.6438810500344E-04
(PID.TID 0000.0001) %MON dynstat_vvel_max             =   5.9351194468358E-03
(PID.TID 0000.0001) %MON dynstat_vvel_min             =  -5.5058779045079E-03
(PID.TID 0000.0001) %MON dynstat_vvel_mean            =   6.1263944180244E-05
(PID.TID 0000.0001) %MON dynstat_vvel_sd              =   8.5796511516789E-04
(PID.TID 0000.0001) %MON dynstat_vvel_del2            =   8.7994725402601E-05
(PID.TID 0000.0001) %MON dynstat_wvel_max             =   1.3689762468561E-05
(PID.TID 0000.0001) %MON dynstat_wvel_min             =  -1.5492828993396E-05
(PID.TID 0000.0001) %MON dynstat_wvel_mean            =  -6.1524834871738E-23
(PID.TID 0000.0001) %MON dynstat_wvel_sd              =   4.6135102611197E-06
(PID.TID 0000.0001) %MON dynstat_wvel_del2            =   4.3278417428735E-07
(PID.TID 0000.0001) %MON dynstat_theta_max            =   1.3325047302241E+01
(PID.TID 0000.0001) %MON dynstat_theta_min            =   6.2538407280146E+00
(PID.TID 0000.0001) %MON dynstat_theta_mean           =   8.4641503525954E+00
(PID.TID 0000.0001) %MON dynstat_theta_sd             =   1.4058063188081E+00
(PID.TID 0000.0001) %MON dynstat_theta_del2           =   7.3997142683008E-03
(PID.TID 0000.0001) %MON dynstat_salt_max             =   1.1996580755339E+01
(PID.TID 0000.0001) %MON dynstat_salt_min             =   1.0463806009263E+01
(PID.TID 0000.0001) %MON dynstat_salt_mean            =   1.1308813102117E+01
(PID.TID 0000.0001) %MON dynstat_salt_sd              =   5.1714052428582E-01
(PID.TID 0000.0001) %MON dynstat_salt_del2            =   5.6496950146319E-04
(PID.TID 0000.0001) %MON advcfl_uvel_max              =   5.2852688470072E-03
(PID.TID 0000.0001) %MON advcfl_vvel_max              =   2.1366430008609E-04
(PID.TID 0000.0001) %MON advcfl_wvel_max              =   1.4828030277537E-03
(PID.TID 0000.0001) %MON advcfl_W_hf_max              =   1.6152556853880E-03
(PID.TID 0000.0001) %MON pe_b_mean                    =   5.4027064609167E-05
(PID.TID 0000.0001) %MON ke_max                       =   1.0782186209427E-02
(PID.TID 0000.0001) %MON ke_mean                      =   2.3526967518391E-04
(PID.TID 0000.0001) %MON ke_vol                       =   5.0981346415358E+14
(PID.TID 0000.0001) // =======================================================
(PID.TID 0000.0001) // End MONITOR dynamic field statistics
(PID.TID 0000.0001) // =======================================================
 Compute Stats, Diag. #     23  ETAN      vol(   0 ): 1.500E+12  Parms: SM      M1      
 Compute Stats, Diag. #     30  UVEL      vol(   0 ): 2.549E+15  Parms: UUR     MR      
 Compute Stats, Diag. #     31  VVEL      vol(   0 ): 2.449E+15  Parms: VVR     MR      
 Compute Stats, Diag. #     32  WVEL      vol(   0 ): 2.422E+15  Parms: WM      LR      
 Compute Stats, Diag. #     26  THETA     vol(   0 ): 2.549E+15  Parms: SMR     MR      
 Compute Stats, Diag. #     71  MXLDEPTH  vol(   0 ): 1.500E+12  Parms: SM      M1      
 Compute Stats, Diag. #    182  GM_Kwy    vol(   0 ): 2.422E+15  Parms: VM      LR      
 Compute Stats, Diag. #    183  GM_Kwz    vol(   0 ): 2.422E+15  Parms: WM P    LR      
 Compute Stats, Diag. #    178  GM_Kvy    vol(   0 ): 2.449E+15  Parms: VV P    MR      
 Compute Stats, Diag. #    185  GM_PsiY   vol(   0 ): 2.330E+15  Parms: VV      LR      
 Compute Stats, Diag. #    180  GM_Kvz    vol(   0 ): 2.449E+15  Parms: VV      MR      
 cg2d: Sum(rhs),rhsMax =  -2.42722508758675E-14  9.06470943968636E-01
(PID.TID 0000.0001)                    cg2d_init_res =    4.37917898900590E-03
(PID.TID 0000.0001)                       cg2d_iters =    27
(PID.TID 0000.0001)                         cg2d_res =    7.18575242472155E-14
(PID.TID 0000.0001) // =======================================================
(PID.TID 0000.0001) // Begin MONITOR dynamic field statistics
(PID.TID 0000.0001) // =======================================================
(PID.TID 0000.0001) %MON time_tsnumber                =                    11
(PID.TID 0000.0001) %MON time_secondsf                =   3.9600000000000E+04
(PID.TID 0000.0001) %MON dynstat_eta_max              =   3.6005721791077E-01
(PID.TID 0000.0001) %MON dynstat_eta_min              =  -8.3091493427862E-02
(PID.TID 0000.0001) %MON dynstat_eta_mean             =   2.0701090494792E-15
(PID.TID 0000.0001) %MON dynstat_eta_sd               =   1.3623730874115E-01
(PID.TID 0000.0001) %MON dynstat_eta_del2             =   5.7611020736283E-03
(PID.TID 0000.0001) %MON dynstat_uvel_max             =   1.4377351892170E-01
(PID.TID 0000.0001) %MON dynstat_uvel_min             =  -1.4515031939434E-01
(PID.TID 0000.0001) %MON dynstat_uvel_mean            =   2.4776550284050E-04
(PID.TID 0000.0001) %MON dynstat_uvel_sd              =   2.1407036292570E-02
(PID.TID 0000.0001) %MON dynstat_uvel_del2            =   6.5754716842250E-04
(PID.TID 0000.0001) %MON dynstat_vvel_max             =   8.7057031288621E-03
(PID.TID 0000.0001) %MON dynstat_vvel_min             =  -8.6433557031327E-03
(PID.TID 0000.0001) %MON dynstat_vvel_mean            =  -6.2942704193220E-05
(PID.TID 0000.0001) %MON dynstat_vvel_sd              =   1.2957109117642E-03
(PID.TID 0000.0001) %MON dynstat_vvel_del2            =   8.9630161230899E-05
(PID.TID 0000.0001) %MON dynstat_wvel_max             =   1.4125957865637E-05
(PID.TID 0000.0001) %MON dynstat_wvel_min             =  -2.4476362815800E-05
(PID.TID 0000.0001) %MON dynstat_wvel_mean            =  -1.8072920243573E-22
(PID.TID 0000.0001) %MON dynstat_wvel_sd              =   5.7380801692777E-06
(PID.TID 0000.0001) %MON dynstat_wvel_del2            =   4.1027662896609E-07
(PID.TID 0000.0001) %MON dynstat_theta_max            =   1.3324990310605E+01
(PID.TID 0000.0001) %MON dynstat_theta_min            =   6.2538413492730E+00
(PID.TID 0000.0001) %MON dynstat_theta_mean           =   8.4641504768571E+00
(PID.TID 0000.0001) %MON dynstat_theta_sd             =   1.4058062396057E+00
(PID.TID 0000.0001) %MON dynstat_theta_del2           =   7.3999132665360E-03
(PID.TID 0000.0001) %MON dynstat_salt_max             =   1.1996580627228E+01
(PID.TID 0000.0001) %MON dynstat_salt_min             =   1.0463889947639E+01
(PID.TID 0000.0001) %MON dynstat_salt_mean            =   1.1308813193643E+01
(PID.TID 0000.0001) %MON dynstat_salt_sd              =   5.1713246636203E-01
(PID.TID 0000.0001) %MON dynstat_salt_del2            =   5.6502481882583E-04
(PID.TID 0000.0001) %MON advcfl_uvel_max              =   5.2254114981961E-03
(PID.TID 0000.0001) %MON advcfl_vvel_max              =   3.1340531263903E-04
(PID.TID 0000.0001) %MON advcfl_wvel_max              =   2.4364938130858E-03
(PID.TID 0000.0001) %MON advcfl_W_hf_max              =   2.6370262445179E-03
(PID.TID 0000.0001) %MON pe_b_mean                    =   5.3572396842327E-05
(PID.TID 0000.0001) %MON ke_max                       =   1.0548861277372E-02
(PID.TID 0000.0001) %MON ke_mean                      =   2.2996970518720E-04
(PID.TID 0000.0001) %MON ke_vol                       =   5.0981346415358E+14
(PID.TID 0000.0001) // =======================================================
(PID.TID 0000.0001) // End MONITOR dynamic field statistics
(PID.TID 0000.0001) // =======================================================
 cg2d: Sum(rhs),rhsMax =  -2.63226940244721E-14  9.06113154906900E-01
(PID.TID 0000.0001)                    cg2d_init_res =    7.07646104840138E-03
(PID.TID 0000.0001)                       cg2d_iters =    28
(PID.TID 0000.0001)                         cg2d_res =    2.60882470379462E-16
(PID.TID 0000.0001) // =======================================================
(PID.TID 0000.0001) // Begin MONITOR dynamic field statistics
(PID.TID 0000.0001) // =======================================================
(PID.TID 0000.0001) %MON time_tsnumber                =                    12
(PID.TID 0000.0001) %MON time_secondsf                =   4.3200000000000E+04
(PID.TID 0000.0001) %MON dynstat_eta_max              =   3.5815465230866E-01
(PID.TID 0000.0001) %MON dynstat_eta_min              =  -8.2031187039689E-02
(PID.TID 0000.0001) %MON dynstat_eta_mean             =   2.0503997802734E-15
(PID.TID 0000.0001) %MON dynstat_eta_sd               =   1.3528766437878E-01
(PID.TID 0000.0001) %MON dynstat_eta_del2             =   5.7620752513310E-03
(PID.TID 0000.0001) %MON dynstat_uvel_max             =   1.4132631456803E-01
(PID.TID 0000.0001) %MON dynstat_uvel_min             =  -1.4262828063419E-01
(PID.TID 0000.0001) %MON dynstat_uvel_mean            =   2.0043238277422E-04
(PID.TID 0000.0001) %MON dynstat_uvel_sd              =   2.1033289493419E-02
(PID.TID 0000.0001) %MON dynstat_uvel_del2            =   6.4376641365177E-04
(PID.TID 0000.0001) %MON dynstat_vvel_max             =   1.0733650652417E-02
(PID.TID 0000.0001) %MON dynstat_vvel_min             =  -1.0859657548039E-02
(PID.TID 0000.0001) %MON dynstat_vvel_mean            =  -1.3125129613646E-04
(PID.TID 0000.0001) %MON dynstat_vvel_sd              =   1.6617607411815E-03
(PID.TID 0000.0001) %MON dynstat_vvel_del2            =   9.4672601899264E-05
(PID.TID 0000.0001) %MON dynstat_wvel_max             =   2.0446682115987E-05
(PID.TID 0000.0001) %MON dynstat_wvel_min             =  -3.0448565546641E-05
(PID.TID 0000.0001) %MON dynstat_wvel_mean            =   1.4612148282038E-22
(PID.TID 0000.0001) %MON dynstat_wvel_sd              =   7.0108109196844E-06
(PID.TID 0000.0001) %MON dynstat_wvel_del2            =   3.9204538011821E-07
(PID.TID 0000.0001) %MON dynstat_theta_max            =   1.3324904867769E+01
(PID.TID 0000.0001) %MON dynstat_theta_min            =   6.2538414082388E+00
(PID.TID 0000.0001) %MON dynstat_theta_mean           =   8.4641514830367E+00
(PID.TID 0000.0001) %MON dynstat_theta_sd             =   1.4058078337268E+00
(PID.TID 0000.0001) %MON dynstat_theta_del2           =   7.4006032867913E-03
(PID.TID 0000.0001) %MON dynstat_salt_max             =   1.1996579266033E+01
(PID.TID 0000.0001) %MON dynstat_salt_min             =   1.0463953740894E+01
(PID.TID 0000.0001) %MON dynstat_salt_mean            =   1.1308813846450E+01
(PID.TID 0000.0001) %MON dynstat_salt_sd              =   5.1712437370037E-01
(PID.TID 0000.0001) %MON dynstat_salt_del2            =   5.6508121895469E-04
(PID.TID 0000.0001) %MON advcfl_uvel_max              =   5.1346181028307E-03
(PID.TID 0000.0001) %MON advcfl_vvel_max              =   3.9094767172939E-04
(PID.TID 0000.0001) %MON advcfl_wvel_max              =   3.0462600506102E-03
(PID.TID 0000.0001) %MON advcfl_W_hf_max              =   3.2949240141710E-03
(PID.TID 0000.0001) %MON pe_b_mean                    =   5.2828145307072E-05
(PID.TID 0000.0001) %MON ke_max                       =   1.0198637624999E-02
(PID.TID 0000.0001) %MON ke_mean                      =   2.2255456124557E-04
(PID.TID 0000.0001) %MON ke_vol                       =   5.0981346415358E+14
(PID.TID 0000.0001) // =======================================================
(PID.TID 0000.0001) // End MONITOR dynamic field statistics
(PID.TID 0000.0001) // =======================================================
 cg2d: Sum(rhs),rhsMax =  -2.60590160561236E-14  9.06461652431493E-01
(PID.TID 0000.0001)                    cg2d_init_res =    4.76474796964117E-03
(PID.TID 0000.0001)                       cg2d_iters =    28
(PID.TID 0000.0001)                         cg2d_res =    2.11614515508372E-16
(PID.TID 0000.0001) // =======================================================
(PID.TID 0000.0001) // Begin MONITOR dynamic field statistics
(PID.TID 0000.0001) // =======================================================
(PID.TID 0000.0001) %MON time_tsnumber                =                    13
(PID.TID 0000.0001) %MON time_secondsf                =   4.6800000000000E+04
(PID.TID 0000.0001) %MON dynstat_eta_max              =   3.5729673736388E-01
(PID.TID 0000.0001) %MON dynstat_eta_min              =  -8.1001872975683E-02
(PID.TID 0000.0001) %MON dynstat_eta_mean             =   2.2141138712565E-15
(PID.TID 0000.0001) %MON dynstat_eta_sd               =   1.3478795712997E-01
(PID.TID 0000.0001) %MON dynstat_eta_del2             =   5.7638957083199E-03
(PID.TID 0000.0001) %MON dynstat_uvel_max             =   1.3830273653987E-01
(PID.TID 0000.0001) %MON dynstat_uvel_min             =  -1.3953442024518E-01
(PID.TID 0000.0001) %MON dynstat_uvel_mean            =   1.4127547668235E-04
(PID.TID 0000.0001) %MON dynstat_uvel_sd              =   2.0601270711537E-02
(PID.TID 0000.0001) %MON dynstat_uvel_del2            =   6.2503011305810E-04
(PID.TID 0000.0001) %MON dynstat_vvel_max             =   1.1759725391927E-02
(PID.TID 0000.0001) %MON dynstat_vvel_min             =  -1.1888464728987E-02
(PID.TID 0000.0001) %MON dynstat_vvel_mean            =  -1.3668239806475E-04
(PID.TID 0000.0001) %MON dynstat_vvel_sd              =   1.8496901349659E-03
(PID.TID 0000.0001) %MON dynstat_vvel_del2            =   9.8700209468106E-05
(PID.TID 0000.0001) %MON dynstat_wvel_max             =   2.5295393818916E-05
(PID.TID 0000.0001) %MON dynstat_wvel_min             =  -3.2832751065062E-05
(PID.TID 0000.0001) %MON dynstat_wvel_mean            =  -1.0766846102554E-22
(PID.TID 0000.0001) %MON dynstat_wvel_sd              =   7.8223220986826E-06
(PID.TID 0000.0001) %MON dynstat_wvel_del2            =   3.7486957778215E-07
(PID.TID 0000.0001) %MON dynstat_theta_max            =   1.3324802265452E+01
(PID.TID 0000.0001) %MON dynstat_theta_min            =   6.2538414437916E+00
(PID.TID 0000.0001) %MON dynstat_theta_mean           =   8.4641522604280E+00
(PID.TID 0000.0001) %MON dynstat_theta_sd             =   1.4058089946518E+00
(PID.TID 0000.0001) %MON dynstat_theta_del2           =   7.4016189817869E-03
(PID.TID 0000.0001) %MON dynstat_salt_max             =   1.1996577193337E+01
(PID.TID 0000.0001) %MON dynstat_salt_min             =   1.0463927195669E+01
(PID.TID 0000.0001) %MON dynstat_salt_mean            =   1.1308814349082E+01
(PID.TID 0000.0001) %MON dynstat_salt_sd              =   5.1711629092737E-01
(PID.TID 0000.0001) %MON dynstat_salt_del2            =   5.6514724398736E-04
(PID.TID 0000.0001) %MON advcfl_uvel_max              =   5.0232391288265E-03
(PID.TID 0000.0001) %MON advcfl_vvel_max              =   4.2798473024353E-04
(PID.TID 0000.0001) %MON advcfl_wvel_max              =   3.2747046883990E-03
(PID.TID 0000.0001) %MON advcfl_W_hf_max              =   3.5453197969364E-03
(PID.TID 0000.0001) %MON pe_b_mean                    =   5.2438607155568E-05
(PID.TID 0000.0001) %MON ke_max                       =   9.7714293459163E-03
(PID.TID 0000.0001) %MON ke_mean                      =   2.1386870718418E-04
(PID.TID 0000.0001) %MON ke_vol                       =   5.0981346415358E+14
(PID.TID 0000.0001) // =======================================================
(PID.TID 0000.0001) // End MONITOR dynamic field statistics
(PID.TID 0000.0001) // =======================================================
 cg2d: Sum(rhs),rhsMax =  -2.83141565748934E-14  9.07580077265601E-01
(PID.TID 0000.0001)                    cg2d_init_res =    2.59701148367062E-03
(PID.TID 0000.0001)                       cg2d_iters =    27
(PID.TID 0000.0001)                         cg2d_res =    6.59085776589616E-14
(PID.TID 0000.0001) // =======================================================
(PID.TID 0000.0001) // Begin MONITOR dynamic field statistics
(PID.TID 0000.0001) // =======================================================
(PID.TID 0000.0001) %MON time_tsnumber                =                    14
(PID.TID 0000.0001) %MON time_secondsf                =   5.0400000000000E+04
(PID.TID 0000.0001) %MON dynstat_eta_max              =   3.5756361514696E-01
(PID.TID 0000.0001) %MON dynstat_eta_min              =  -8.0354651019643E-02
(PID.TID 0000.0001) %MON dynstat_eta_mean             =   2.0116170247396E-15
(PID.TID 0000.0001) %MON dynstat_eta_sd               =   1.3484799043509E-01
(PID.TID 0000.0001) %MON dynstat_eta_del2             =   5.7663579240683E-03
(PID.TID 0000.0001) %MON dynstat_uvel_max             =   1.3513191441567E-01
(PID.TID 0000.0001) %MON dynstat_uvel_min             =  -1.3625246407431E-01
(PID.TID 0000.0001) %MON dynstat_uvel_mean            =   9.3571736488526E-05
(PID.TID 0000.0001) %MON dynstat_uvel_sd              =   2.0168596742181E-02
(PID.TID 0000.0001) %MON dynstat_uvel_del2            =   6.0378811054404E-04
(PID.TID 0000.0001) %MON dynstat_vvel_max             =   1.1601997983590E-02
(PID.TID 0000.0001) %MON dynstat_vvel_min             =  -1.1630188999935E-02
(PID.TID 0000.0001) %MON dynstat_vvel_mean            =  -9.6004129872678E-05
(PID.TID 0000.0001) %MON dynstat_vvel_sd              =   1.8364857143578E-03
(PID.TID 0000.0001) %MON dynstat_vvel_del2            =   9.8547166360645E-05
(PID.TID 0000.0001) %MON dynstat_wvel_max             =   2.7453781088371E-05
(PID.TID 0000.0001) %MON dynstat_wvel_min             =  -3.1566690372559E-05
(PID.TID 0000.0001) %MON dynstat_wvel_mean            =  -8.4596647948639E-23
(PID.TID 0000.0001) %MON dynstat_wvel_sd              =   7.9477693169940E-06
(PID.TID 0000.0001) %MON dynstat_wvel_del2            =   3.5472718022727E-07
(PID.TID 0000.0001) %MON dynstat_theta_max            =   1.3324696184144E+01
(PID.TID 0000.0001) %MON dynstat_theta_min            =   6.2538416928654E+00
(PID.TID 0000.0001) %MON dynstat_theta_mean           =   8.4641524088522E+00
(PID.TID 0000.0001) %MON dynstat_theta_sd             =   1.4058089622378E+00
(PID.TID 0000.0001) %MON dynstat_theta_del2           =   7.4027629578052E-03
(PID.TID 0000.0001) %MON dynstat_salt_max             =   1.1996575003026E+01
(PID.TID 0000.0001) %MON dynstat_salt_min             =   1.0463953981734E+01
(PID.TID 0000.0001) %MON dynstat_salt_mean            =   1.1308814449630E+01
(PID.TID 0000.0001) %MON dynstat_salt_sd              =   5.1710823144651E-01
(PID.TID 0000.0001) %MON dynstat_salt_del2            =   5.6521632667887E-04
(PID.TID 0000.0001) %MON advcfl_uvel_max              =   4.9050887066752E-03
(PID.TID 0000.0001) %MON advcfl_vvel_max              =   4.1868680399767E-04
(PID.TID 0000.0001) %MON advcfl_wvel_max              =   3.1495677480923E-03
(PID.TID 0000.0001) %MON advcfl_W_hf_max              =   3.4126175140666E-03
(PID.TID 0000.0001) %MON pe_b_mean                    =   5.2485328895844E-05
(PID.TID 0000.0001) %MON ke_max                       =   9.3196754709507E-03
(PID.TID 0000.0001) %MON ke_mean                      =   2.0501514614734E-04
(PID.TID 0000.0001) %MON ke_vol                       =   5.0981346415358E+14
(PID.TID 0000.0001) // =======================================================
(PID.TID 0000.0001) // End MONITOR dynamic field statistics
(PID.TID 0000.0001) // =======================================================
 cg2d: Sum(rhs),rhsMax =  -2.45949094423992E-14  9.08938760723508E-01
(PID.TID 0000.0001)                    cg2d_init_res =    2.60418497564966E-03
(PID.TID 0000.0001)                       cg2d_iters =    27
(PID.TID 0000.0001)                         cg2d_res =    2.69420564334468E-14
(PID.TID 0000.0001) // =======================================================
(PID.TID 0000.0001) // Begin MONITOR dynamic field statistics
(PID.TID 0000.0001) // =======================================================
(PID.TID 0000.0001) %MON time_tsnumber                =                    15
(PID.TID 0000.0001) %MON time_secondsf                =   5.4000000000000E+04
(PID.TID 0000.0001) %MON dynstat_eta_max              =   3.5826984179584E-01
(PID.TID 0000.0001) %MON dynstat_eta_min              =  -8.0169896011350E-02
(PID.TID 0000.0001) %MON dynstat_eta_mean             =   2.0526250203451E-15
(PID.TID 0000.0001) %MON dynstat_eta_sd               =   1.3516292433132E-01
(PID.TID 0000.0001) %MON dynstat_eta_del2             =   5.7688429460883E-03
(PID.TID 0000.0001) %MON dynstat_uvel_max             =   1.3224653085217E-01
(PID.TID 0000.0001) %MON dynstat_uvel_min             =  -1.3320921294923E-01
(PID.TID 0000.0001) %MON dynstat_uvel_mean            =   6.9715713594563E-05
(PID.TID 0000.0001) %MON dynstat_uvel_sd              =   1.9792805319924E-02
(PID.TID 0000.0001) %MON dynstat_uvel_del2            =   5.8262950240032E-04
(PID.TID 0000.0001) %MON dynstat_vvel_max             =   1.0225437500341E-02
(PID.TID 0000.0001) %MON dynstat_vvel_min             =  -1.0143456344474E-02
(PID.TID 0000.0001) %MON dynstat_vvel_mean            =  -3.5256201781577E-05
(PID.TID 0000.0001) %MON dynstat_vvel_sd              =   1.6319329817757E-03
(PID.TID 0000.0001) %MON dynstat_vvel_del2            =   9.3034888577501E-05
(PID.TID 0000.0001) %MON dynstat_wvel_max             =   2.6752692132241E-05
(PID.TID 0000.0001) %MON dynstat_wvel_min             =  -2.6913716806882E-05
(PID.TID 0000.0001) %MON dynstat_wvel_mean            =  -1.0093918221144E-22
(PID.TID 0000.0001) %MON dynstat_wvel_sd              =   7.3640969699022E-06
(PID.TID 0000.0001) %MON dynstat_wvel_del2            =   3.2993422732089E-07
(PID.TID 0000.0001) %MON dynstat_theta_max            =   1.3324600744254E+01
(PID.TID 0000.0001) %MON dynstat_theta_min            =   6.2538421275218E+00
(PID.TID 0000.0001) %MON dynstat_theta_mean           =   8.4641521359087E+00
(PID.TID 0000.0001) %MON dynstat_theta_sd             =   1.4058081299183E+00
(PID.TID 0000.0001) %MON dynstat_theta_del2           =   7.4038312827446E-03
(PID.TID 0000.0001) %MON dynstat_salt_max             =   1.1996573283709E+01
(PID.TID 0000.0001) %MON dynstat_salt_min             =   1.0464003976244E+01
(PID.TID 0000.0001) %MON dynstat_salt_mean            =   1.1308814280558E+01
(PID.TID 0000.0001) %MON dynstat_salt_sd              =   5.1710018757843E-01
(PID.TID 0000.0001) %MON dynstat_salt_del2            =   5.6528069309658E-04
(PID.TID 0000.0001) %MON advcfl_uvel_max              =   4.7955316661724E-03
(PID.TID 0000.0001) %MON advcfl_vvel_max              =   3.6811575001229E-04
(PID.TID 0000.0001) %MON advcfl_wvel_max              =   2.7143846311395E-03
(PID.TID 0000.0001) %MON advcfl_W_hf_max              =   2.9407892465618E-03
(PID.TID 0000.0001) %MON pe_b_mean                    =   5.2730771353948E-05
(PID.TID 0000.0001) %MON ke_max                       =   8.9014214049848E-03
(PID.TID 0000.0001) %MON ke_mean                      =   1.9715996914997E-04
(PID.TID 0000.0001) %MON ke_vol                       =   5.0981346415358E+14
(PID.TID 0000.0001) // =======================================================
(PID.TID 0000.0001) // End MONITOR dynamic field statistics
(PID.TID 0000.0001) // =======================================================
 Compute Stats, Diag. #     23  ETAN      vol(   0 ): 1.500E+12  Parms: SM      M1      
 Compute Stats, Diag. #     30  UVEL      vol(   0 ): 2.549E+15  Parms: UUR     MR      
 Compute Stats, Diag. #     31  VVEL      vol(   0 ): 2.449E+15  Parms: VVR     MR      
 Compute Stats, Diag. #     32  WVEL      vol(   0 ): 2.422E+15  Parms: WM      LR      
 Compute Stats, Diag. #     26  THETA     vol(   0 ): 2.549E+15  Parms: SMR     MR      
 Compute Stats, Diag. #     71  MXLDEPTH  vol(   0 ): 1.500E+12  Parms: SM      M1      
 Compute Stats, Diag. #    182  GM_Kwy    vol(   0 ): 2.422E+15  Parms: VM      LR      
 Compute Stats, Diag. #    183  GM_Kwz    vol(   0 ): 2.422E+15  Parms: WM P    LR      
 Compute Stats, Diag. #    178  GM_Kvy    vol(   0 ): 2.449E+15  Parms: VV P    MR      
 Compute Stats, Diag. #    185  GM_PsiY   vol(   0 ): 2.330E+15  Parms: VV      LR      
 Compute Stats, Diag. #    180  GM_Kvz    vol(   0 ): 2.449E+15  Parms: VV      MR      
 cg2d: Sum(rhs),rhsMax =  -2.55073739907630E-14  9.09997874516029E-01
(PID.TID 0000.0001)                    cg2d_init_res =    2.13166087472287E-03
(PID.TID 0000.0001)                       cg2d_iters =    27
(PID.TID 0000.0001)                         cg2d_res =    1.16666162045857E-14
(PID.TID 0000.0001) // =======================================================
(PID.TID 0000.0001) // Begin MONITOR dynamic field statistics
(PID.TID 0000.0001) // =======================================================
(PID.TID 0000.0001) %MON time_tsnumber                =                    16
(PID.TID 0000.0001) %MON time_secondsf                =   5.7600000000000E+04
(PID.TID 0000.0001) %MON dynstat_eta_max              =   3.5879936970704E-01
(PID.TID 0000.0001) %MON dynstat_eta_min              =  -8.0361468338013E-02
(PID.TID 0000.0001) %MON dynstat_eta_mean             =   2.2640228271484E-15
(PID.TID 0000.0001) %MON dynstat_eta_sd               =   1.3541560089859E-01
(PID.TID 0000.0001) %MON dynstat_eta_del2             =   5.7707787902671E-03
(PID.TID 0000.0001) %MON dynstat_uvel_max             =   1.3001571999189E-01
(PID.TID 0000.0001) %MON dynstat_uvel_min             =  -1.3079862582130E-01
(PID.TID 0000.0001) %MON dynstat_uvel_mean            =   7.1078409790034E-05
(PID.TID 0000.0001) %MON dynstat_uvel_sd              =   1.9520763998038E-02
(PID.TID 0000.0001) %MON dynstat_uvel_del2            =   5.6396088651473E-04
(PID.TID 0000.0001) %MON dynstat_vvel_max             =   7.7598215114391E-03
(PID.TID 0000.0001) %MON dynstat_vvel_min             =  -7.6235551694335E-03
(PID.TID 0000.0001) %MON dynstat_vvel_mean            =   2.1432495250334E-05
(PID.TID 0000.0001) %MON dynstat_vvel_sd              =   1.2820354776104E-03
(PID.TID 0000.0001) %MON dynstat_vvel_del2            =   8.2994973722363E-05
(PID.TID 0000.0001) %MON dynstat_wvel_max             =   2.3429526532635E-05
(PID.TID 0000.0001) %MON dynstat_wvel_min             =  -1.9397271235379E-05
(PID.TID 0000.0001) %MON dynstat_wvel_mean            =  -7.6906043589672E-24
(PID.TID 0000.0001) %MON dynstat_wvel_sd              =   6.2129954436000E-06
(PID.TID 0000.0001) %MON dynstat_wvel_del2            =   3.0327030374692E-07
(PID.TID 0000.0001) %MON dynstat_theta_max            =   1.3324528526011E+01
(PID.TID 0000.0001) %MON dynstat_theta_min            =   6.2538426226713E+00
(PID.TID 0000.0001) %MON dynstat_theta_mean           =   8.4641518174263E+00
(PID.TID 0000.0001) %MON dynstat_theta_sd             =   1.4058072109507E+00
(PID.TID 0000.0001) %MON dynstat_theta_del2           =   7.4046392190735E-03
(PID.TID 0000.0001) %MON dynstat_salt_max             =   1.1996572551430E+01
(PID.TID 0000.0001) %MON dynstat_salt_min             =   1.0464079286806E+01
(PID.TID 0000.0001) %MON dynstat_salt_mean            =   1.1308814080459E+01
(PID.TID 0000.0001) %MON dynstat_salt_sd              =   5.1709214579771E-01
(PID.TID 0000.0001) %MON dynstat_salt_del2            =   5.6534994714316E-04
(PID.TID 0000.0001) %MON advcfl_uvel_max              =   4.7087505295666E-03
(PID.TID 0000.0001) %MON advcfl_vvel_max              =   2.7935357441181E-04
(PID.TID 0000.0001) %MON advcfl_wvel_max              =   2.2856965421910E-03
(PID.TID 0000.0001) %MON advcfl_W_hf_max              =   2.4778020054149E-03
(PID.TID 0000.0001) %MON pe_b_mean                    =   5.2928107780236E-05
(PID.TID 0000.0001) %MON ke_max                       =   8.5701985693242E-03
(PID.TID 0000.0001) %MON ke_mean                      =   1.9132243245155E-04
(PID.TID 0000.0001) %MON ke_vol                       =   5.0981346415358E+14
(PID.TID 0000.0001) // =======================================================
(PID.TID 0000.0001) // End MONITOR dynamic field statistics
(PID.TID 0000.0001) // =======================================================
 cg2d: Sum(rhs),rhsMax =  -2.90913126921311E-14  9.10514057242890E-01
(PID.TID 0000.0001)                    cg2d_init_res =    1.56816410361134E-03
(PID.TID 0000.0001)                       cg2d_iters =    27
(PID.TID 0000.0001)                         cg2d_res =    2.56678551860221E-14
(PID.TID 0000.0001) // =======================================================
(PID.TID 0000.0001) // Begin MONITOR dynamic field statistics
(PID.TID 0000.0001) // =======================================================
(PID.TID 0000.0001) %MON time_tsnumber                =                    17
(PID.TID 0000.0001) %MON time_secondsf                =   6.1200000000000E+04
(PID.TID 0000.0001) %MON dynstat_eta_max              =   3.5892260045530E-01
(PID.TID 0000.0001) %MON dynstat_eta_min              =  -8.0770874878316E-02
(PID.TID 0000.0001) %MON dynstat_eta_mean             =   2.2672017415365E-15
(PID.TID 0000.0001) %MON dynstat_eta_sd               =   1.3548317136465E-01
(PID.TID 0000.0001) %MON dynstat_eta_del2             =   5.7718835064842E-03
(PID.TID 0000.0001) %MON dynstat_uvel_max             =   1.2869517092429E-01
(PID.TID 0000.0001) %MON dynstat_uvel_min             =  -1.2931629844478E-01
(PID.TID 0000.0001) %MON dynstat_uvel_mean            =   9.1065108814196E-05
(PID.TID 0000.0001) %MON dynstat_uvel_sd              =   1.9381606678720E-02
(PID.TID 0000.0001) %MON dynstat_uvel_del2            =   5.4974071550193E-04
(PID.TID 0000.0001) %MON dynstat_vvel_max             =   5.3050288889725E-03
(PID.TID 0000.0001) %MON dynstat_vvel_min             =  -5.6013514429027E-03
(PID.TID 0000.0001) %MON dynstat_vvel_mean            =   5.7878074268827E-05
(PID.TID 0000.0001) %MON dynstat_vvel_sd              =   8.8955236860707E-04
(PID.TID 0000.0001) %MON dynstat_vvel_del2            =   7.1397089459301E-05
(PID.TID 0000.0001) %MON dynstat_wvel_max             =   1.8041003190978E-05
(PID.TID 0000.0001) %MON dynstat_wvel_min             =  -1.2381299619639E-05
(PID.TID 0000.0001) %MON dynstat_wvel_mean            =   3.8453021794836E-23
(PID.TID 0000.0001) %MON dynstat_wvel_sd              =   4.8377586125358E-06
(PID.TID 0000.0001) %MON dynstat_wvel_del2            =   2.8250542829037E-07
(PID.TID 0000.0001) %MON dynstat_theta_max            =   1.3324489020551E+01
(PID.TID 0000.0001) %MON dynstat_theta_min            =   6.2538430911657E+00
(PID.TID 0000.0001) %MON dynstat_theta_mean           =   8.4641516740645E+00
(PID.TID 0000.0001) %MON dynstat_theta_sd             =   1.4058066246895E+00
(PID.TID 0000.0001) %MON dynstat_theta_del2           =   7.4050437790329E-03
(PID.TID 0000.0001) %MON dynstat_salt_max             =   1.1996573195826E+01
(PID.TID 0000.0001) %MON dynstat_salt_min             =   1.0464131320303E+01
(PID.TID 0000.0001) %MON dynstat_salt_mean            =   1.1308813989776E+01
(PID.TID 0000.0001) %MON dynstat_salt_sd              =   5.1708409821860E-01
(PID.TID 0000.0001) %MON dynstat_salt_del2            =   5.6542208945770E-04
(PID.TID 0000.0001) %MON advcfl_uvel_max              =   4.6553867440122E-03
(PID.TID 0000.0001) %MON advcfl_vvel_max              =   2.0164865194450E-04
(PID.TID 0000.0001) %MON advcfl_wvel_max              =   1.7949430511231E-03
(PID.TID 0000.0001) %MON advcfl_W_hf_max              =   1.9447881606365E-03
(PID.TID 0000.0001) %MON pe_b_mean                    =   5.2980941710264E-05
(PID.TID 0000.0001) %MON ke_max                       =   8.3661387379917E-03
(PID.TID 0000.0001) %MON ke_mean                      =   1.8820922670436E-04
(PID.TID 0000.0001) %MON ke_vol                       =   5.0981346415358E+14
(PID.TID 0000.0001) // =======================================================
(PID.TID 0000.0001) // End MONITOR dynamic field statistics
(PID.TID 0000.0001) // =======================================================
 cg2d: Sum(rhs),rhsMax =  -2.88692680872060E-14  9.10521386716294E-01
(PID.TID 0000.0001)                    cg2d_init_res =    1.53170869474791E-03
(PID.TID 0000.0001)                       cg2d_iters =    27
(PID.TID 0000.0001)                         cg2d_res =    5.44969542088829E-14
(PID.TID 0000.0001) // =======================================================
(PID.TID 0000.0001) // Begin MONITOR dynamic field statistics
(PID.TID 0000.0001) // =======================================================
(PID.TID 0000.0001) %MON time_tsnumber                =                    18
(PID.TID 0000.0001) %MON time_secondsf                =   6.4800000000000E+04
(PID.TID 0000.0001) %MON dynstat_eta_max              =   3.5875632879985E-01
(PID.TID 0000.0001) %MON dynstat_eta_min              =  -8.1227434665217E-02
(PID.TID 0000.0001) %MON dynstat_eta_mean             =   2.5091171264648E-15
(PID.TID 0000.0001) %MON dynstat_eta_sd               =   1.3541856370032E-01
(PID.TID 0000.0001) %MON dynstat_eta_del2             =   5.7721572732766E-03
(PID.TID 0000.0001) %MON dynstat_uvel_max             =   1.2840169805347E-01
(PID.TID 0000.0001) %MON dynstat_uvel_min             =  -1.2891946987757E-01
(PID.TID 0000.0001) %MON dynstat_uvel_mean            =   1.1917346695399E-04
(PID.TID 0000.0001) %MON dynstat_uvel_sd              =   1.9385071092579E-02
(PID.TID 0000.0001) %MON dynstat_uvel_del2            =   5.4130495879576E-04
(PID.TID 0000.0001) %MON dynstat_vvel_max             =   5.4382484824320E-03
(PID.TID 0000.0001) %MON dynstat_vvel_min             =  -5.6811960065811E-03
(PID.TID 0000.0001) %MON dynstat_vvel_mean            =   6.7786696094686E-05
(PID.TID 0000.0001) %MON dynstat_vvel_sd              =   6.8795133611776E-04
(PID.TID 0000.0001) %MON dynstat_vvel_del2            =   6.3429036126593E-05
(PID.TID 0000.0001) %MON dynstat_wvel_max             =   1.1338133945150E-05
(PID.TID 0000.0001) %MON dynstat_wvel_min             =  -1.3721964667406E-05
(PID.TID 0000.0001) %MON dynstat_wvel_mean            =  -9.9977856666574E-23
(PID.TID 0000.0001) %MON dynstat_wvel_sd              =   3.9049036485240E-06
(PID.TID 0000.0001) %MON dynstat_wvel_del2            =   2.7766011549873E-07
(PID.TID 0000.0001) %MON dynstat_theta_max            =   1.3324487720561E+01
(PID.TID 0000.0001) %MON dynstat_theta_min            =   6.2538435213175E+00
(PID.TID 0000.0001) %MON dynstat_theta_mean           =   8.4641517090451E+00
(PID.TID 0000.0001) %MON dynstat_theta_sd             =   1.4058063781170E+00
(PID.TID 0000.0001) %MON dynstat_theta_del2           =   7.4049601777867E-03
(PID.TID 0000.0001) %MON dynstat_salt_max             =   1.1996575443965E+01
(PID.TID 0000.0001) %MON dynstat_salt_min             =   1.0464162372158E+01
(PID.TID 0000.0001) %MON dynstat_salt_mean            =   1.1308814011071E+01
(PID.TID 0000.0001) %MON dynstat_salt_sd              =   5.1707604445911E-01
(PID.TID 0000.0001) %MON dynstat_salt_del2            =   5.6549637331228E-04
(PID.TID 0000.0001) %MON advcfl_uvel_max              =   4.6411009155925E-03
(PID.TID 0000.0001) %MON advcfl_vvel_max              =   2.0452305623692E-04
(PID.TID 0000.0001) %MON advcfl_wvel_max              =   1.2871153410104E-03
(PID.TID 0000.0001) %MON advcfl_W_hf_max              =   1.3975972622552E-03
(PID.TID 0000.0001) %MON pe_b_mean                    =   5.2930423867952E-05
(PID.TID 0000.0001) %MON ke_max                       =   8.3105585761116E-03
(PID.TID 0000.0001) %MON ke_mean                      =   1.8812715559026E-04
(PID.TID 0000.0001) %MON ke_vol                       =   5.0981346415358E+14
(PID.TID 0000.0001) // =======================================================
(PID.TID 0000.0001) // End MONITOR dynamic field statistics
(PID.TID 0000.0001) // =======================================================
 cg2d: Sum(rhs),rhsMax =  -3.20819759647151E-14  9.10165026541838E-01
(PID.TID 0000.0001)                    cg2d_init_res =    1.37866682612333E-03
(PID.TID 0000.0001)                       cg2d_iters =    27
(PID.TID 0000.0001)                         cg2d_res =    5.85523627062388E-14
(PID.TID 0000.0001) // =======================================================
(PID.TID 0000.0001) // Begin MONITOR dynamic field statistics
(PID.TID 0000.0001) // =======================================================
(PID.TID 0000.0001) %MON time_tsnumber                =                    19
(PID.TID 0000.0001) %MON time_secondsf                =   6.8400000000000E+04
(PID.TID 0000.0001) %MON dynstat_eta_max              =   3.5852866935188E-01
(PID.TID 0000.0001) %MON dynstat_eta_min              =  -8.1588014063066E-02
(PID.TID 0000.0001) %MON dynstat_eta_mean             =   2.5329589843750E-15
(PID.TID 0000.0001) %MON dynstat_eta_sd               =   1.3533038164482E-01
(PID.TID 0000.0001) %MON dynstat_eta_del2             =   5.7717477668351E-03
(PID.TID 0000.0001) %MON dynstat_uvel_max             =   1.2911070173106E-01
(PID.TID 0000.0001) %MON dynstat_uvel_min             =  -1.2961296653668E-01
(PID.TID 0000.0001) %MON dynstat_uvel_mean            =   1.4484879263881E-04
(PID.TID 0000.0001) %MON dynstat_uvel_sd              =   1.9523597544702E-02
(PID.TID 0000.0001) %MON dynstat_uvel_del2            =   5.3928809114545E-04
(PID.TID 0000.0001) %MON dynstat_vvel_max             =   5.0603825568284E-03
(PID.TID 0000.0001) %MON dynstat_vvel_min             =  -5.2760895708814E-03
(PID.TID 0000.0001) %MON dynstat_vvel_mean            =   5.3996814058515E-05
(PID.TID 0000.0001) %MON dynstat_vvel_sd              =   8.8557097063717E-04
(PID.TID 0000.0001) %MON dynstat_vvel_del2            =   6.4206638397480E-05
(PID.TID 0000.0001) %MON dynstat_wvel_max             =   1.1558065173579E-05
(PID.TID 0000.0001) %MON dynstat_wvel_min             =  -1.7663318677245E-05
(PID.TID 0000.0001) %MON dynstat_wvel_mean            =   7.6906043589672E-23
(PID.TID 0000.0001) %MON dynstat_wvel_sd              =   4.1572819488761E-06
(PID.TID 0000.0001) %MON dynstat_wvel_del2            =   2.9370123641831E-07
(PID.TID 0000.0001) %MON dynstat_theta_max            =   1.3324525824954E+01
(PID.TID 0000.0001) %MON dynstat_theta_min            =   6.2538439458379E+00
(PID.TID 0000.0001) %MON dynstat_theta_mean           =   8.4641518132897E+00
(PID.TID 0000.0001) %MON dynstat_theta_sd             =   1.4058062648079E+00
(PID.TID 0000.0001) %MON dynstat_theta_del2           =   7.4043702420050E-03
(PID.TID 0000.0001) %MON dynstat_salt_max             =   1.1996579344622E+01
(PID.TID 0000.0001) %MON dynstat_salt_min             =   1.0464194256203E+01
(PID.TID 0000.0001) %MON dynstat_salt_mean            =   1.1308814075591E+01
(PID.TID 0000.0001) %MON dynstat_salt_sd              =   5.1706798775106E-01
(PID.TID 0000.0001) %MON dynstat_salt_del2            =   5.6556568845301E-04
(PID.TID 0000.0001) %MON advcfl_uvel_max              =   4.6660667953207E-03
(PID.TID 0000.0001) %MON advcfl_vvel_max              =   1.8993922455173E-04
(PID.TID 0000.0001) %MON advcfl_wvel_max              =   1.6704119201225E-03
(PID.TID 0000.0001) %MON advcfl_W_hf_max              =   1.8133270653205E-03
(PID.TID 0000.0001) %MON pe_b_mean                    =   5.2861511693014E-05
(PID.TID 0000.0001) %MON ke_max                       =   8.4040960490013E-03
(PID.TID 0000.0001) %MON ke_mean                      =   1.9097405896557E-04
(PID.TID 0000.0001) %MON ke_vol                       =   5.0981346415358E+14
(PID.TID 0000.0001) // =======================================================
(PID.TID 0000.0001) // End MONITOR dynamic field statistics
(PID.TID 0000.0001) // =======================================================
 cg2d: Sum(rhs),rhsMax =  -3.18495230189342E-14  9.09565630209415E-01
(PID.TID 0000.0001)                    cg2d_init_res =    1.19376827872321E-03
(PID.TID 0000.0001)                       cg2d_iters =    27
(PID.TID 0000.0001)                         cg2d_res =    5.14744871930716E-14
(PID.TID 0000.0001) // =======================================================
(PID.TID 0000.0001) // Begin MONITOR dynamic field statistics
(PID.TID 0000.0001) // =======================================================
(PID.TID 0000.0001) %MON time_tsnumber                =                    20
(PID.TID 0000.0001) %MON time_secondsf                =   7.2000000000000E+04
(PID.TID 0000.0001) %MON dynstat_eta_max              =   3.5839093256159E-01
(PID.TID 0000.0001) %MON dynstat_eta_min              =  -8.1765654334708E-02
(PID.TID 0000.0001) %MON dynstat_eta_mean             =   2.4290084838867E-15
(PID.TID 0000.0001) %MON dynstat_eta_sd               =   1.3528857742412E-01
(PID.TID 0000.0001) %MON dynstat_eta_del2             =   5.7708312115380E-03
(PID.TID 0000.0001) %MON dynstat_uvel_max             =   1.3067097731245E-01
(PID.TID 0000.0001) %MON dynstat_uvel_min             =  -1.3125615415315E-01
(PID.TID 0000.0001) %MON dynstat_uvel_mean            =   1.6049252874924E-04
(PID.TID 0000.0001) %MON dynstat_uvel_sd              =   1.9775582256533E-02
(PID.TID 0000.0001) %MON dynstat_uvel_del2            =   5.4361529812967E-04
(PID.TID 0000.0001) %MON dynstat_vvel_max             =   6.0623757618193E-03
(PID.TID 0000.0001) %MON dynstat_vvel_min             =  -6.4232636633273E-03
(PID.TID 0000.0001) %MON dynstat_vvel_mean            =   2.5824408429021E-05
(PID.TID 0000.0001) %MON dynstat_vvel_sd              =   1.2347459449913E-03
(PID.TID 0000.0001) %MON dynstat_vvel_del2            =   7.3291114316028E-05
(PID.TID 0000.0001) %MON dynstat_wvel_max             =   2.0718196536884E-05
(PID.TID 0000.0001) %MON dynstat_wvel_min             =  -2.0074541987866E-05
(PID.TID 0000.0001) %MON dynstat_wvel_mean            =  -4.2298323974320E-23
(PID.TID 0000.0001) %MON dynstat_wvel_sd              =   5.2915886364153E-06
(PID.TID 0000.0001) %MON dynstat_wvel_del2            =   3.2545864901201E-07
(PID.TID 0000.0001) %MON dynstat_theta_max            =   1.3324600424933E+01
(PID.TID 0000.0001) %MON dynstat_theta_min            =   6.2538443999550E+00
(PID.TID 0000.0001) %MON dynstat_theta_mean           =   8.4641518877070E+00
(PID.TID 0000.0001) %MON dynstat_theta_sd             =   1.4058060965686E+00
(PID.TID 0000.0001) %MON dynstat_theta_del2           =   7.4033220065658E-03
(PID.TID 0000.0001) %MON dynstat_salt_max             =   1.1996584772520E+01
(PID.TID 0000.0001) %MON dynstat_salt_min             =   1.0464226740430E+01
(PID.TID 0000.0001) %MON dynstat_salt_mean            =   1.1308814120925E+01
(PID.TID 0000.0001) %MON dynstat_salt_sd              =   5.1705993236656E-01
(PID.TID 0000.0001) %MON dynstat_salt_del2            =   5.6564216347480E-04
(PID.TID 0000.0001) %MON advcfl_uvel_max              =   4.7252215495133E-03
(PID.TID 0000.0001) %MON advcfl_vvel_max              =   2.3123749187978E-04
(PID.TID 0000.0001) %MON advcfl_wvel_max              =   1.9112537117386E-03
(PID.TID 0000.0001) %MON advcfl_W_hf_max              =   2.0746033264899E-03
(PID.TID 0000.0001) %MON pe_b_mean                    =   5.2828858375108E-05
(PID.TID 0000.0001) %MON ke_max                       =   8.6276268838282E-03
(PID.TID 0000.0001) %MON ke_mean                      =   1.9628242378328E-04
(PID.TID 0000.0001) %MON ke_vol                       =   5.0981346415358E+14
(PID.TID 0000.0001) // =======================================================
(PID.TID 0000.0001) // End MONITOR dynamic field statistics
(PID.TID 0000.0001) // =======================================================
 Compute Stats, Diag. #     23  ETAN      vol(   0 ): 1.500E+12  Parms: SM      M1      
 Compute Stats, Diag. #     30  UVEL      vol(   0 ): 2.549E+15  Parms: UUR     MR      
 Compute Stats, Diag. #     31  VVEL      vol(   0 ): 2.449E+15  Parms: VVR     MR      
 Compute Stats, Diag. #     32  WVEL      vol(   0 ): 2.422E+15  Parms: WM      LR      
 Compute Stats, Diag. #     26  THETA     vol(   0 ): 2.549E+15  Parms: SMR     MR      
 Compute Stats, Diag. #     71  MXLDEPTH  vol(   0 ): 1.500E+12  Parms: SM      M1      
 Compute Stats, Diag. #    182  GM_Kwy    vol(   0 ): 2.422E+15  Parms: VM      LR      
 Compute Stats, Diag. #    183  GM_Kwz    vol(   0 ): 2.422E+15  Parms: WM P    LR      
 Compute Stats, Diag. #    178  GM_Kvy    vol(   0 ): 2.449E+15  Parms: VV P    MR      
 Compute Stats, Diag. #    185  GM_PsiY   vol(   0 ): 2.330E+15  Parms: VV      LR      
 Compute Stats, Diag. #    180  GM_Kvz    vol(   0 ): 2.449E+15  Parms: VV      MR      
 cg2d: Sum(rhs),rhsMax =  -3.11937975450149E-14  9.08782053400765E-01
(PID.TID 0000.0001)                    cg2d_init_res =    1.44102126180926E-03
(PID.TID 0000.0001)                       cg2d_iters =    28
(PID.TID 0000.0001)                         cg2d_res =    9.74552424163023E-17
(PID.TID 0000.0001) // =======================================================
(PID.TID 0000.0001) // Begin MONITOR dynamic field statistics
(PID.TID 0000.0001) // =======================================================
(PID.TID 0000.0001) %MON time_tsnumber                =                    21
(PID.TID 0000.0001) %MON time_secondsf                =   7.5600000000000E+04
(PID.TID 0000.0001) %MON dynstat_eta_max              =   3.5836794014684E-01
(PID.TID 0000.0001) %MON dynstat_eta_min              =  -8.1744057612385E-02
(PID.TID 0000.0001) %MON dynstat_eta_mean             =   2.6229222615560E-15
(PID.TID 0000.0001) %MON dynstat_eta_sd               =   1.3530198678013E-01
(PID.TID 0000.0001) %MON dynstat_eta_del2             =   5.7695684786933E-03
(PID.TID 0000.0001) %MON dynstat_uvel_max             =   1.3283147692973E-01
(PID.TID 0000.0001) %MON dynstat_uvel_min             =  -1.3358656659887E-01
(PID.TID 0000.0001) %MON dynstat_uvel_mean            =   1.6314060493144E-04
(PID.TID 0000.0001) %MON dynstat_uvel_sd              =   2.0108291730086E-02
(PID.TID 0000.0001) %MON dynstat_uvel_del2            =   5.5353887175469E-04
(PID.TID 0000.0001) %MON dynstat_vvel_max             =   8.5715613024956E-03
(PID.TID 0000.0001) %MON dynstat_vvel_min             =  -9.0833159586950E-03
(PID.TID 0000.0001) %MON dynstat_vvel_mean            =  -4.8287230980297E-06
(PID.TID 0000.0001) %MON dynstat_vvel_sd              =   1.5210812311752E-03
(PID.TID 0000.0001) %MON dynstat_vvel_del2            =   8.5337803060724E-05
(PID.TID 0000.0001) %MON dynstat_wvel_max             =   2.7780218408278E-05
(PID.TID 0000.0001) %MON dynstat_wvel_min             =  -2.0702267965703E-05
(PID.TID 0000.0001) %MON dynstat_wvel_mean            =   9.6613217259525E-23
(PID.TID 0000.0001) %MON dynstat_wvel_sd              =   6.4960344974299E-06
(PID.TID 0000.0001) %MON dynstat_wvel_del2            =   3.6188871567849E-07
(PID.TID 0000.0001) %MON dynstat_theta_max            =   1.3324705044329E+01
(PID.TID 0000.0001) %MON dynstat_theta_min            =   6.2538449022602E+00
(PID.TID 0000.0001) %MON dynstat_theta_mean           =   8.4641518982511E+00
(PID.TID 0000.0001) %MON dynstat_theta_sd             =   1.4058058079269E+00
(PID.TID 0000.0001) %MON dynstat_theta_del2           =   7.4019208787711E-03
(PID.TID 0000.0001) %MON dynstat_salt_max             =   1.1996591450019E+01
(PID.TID 0000.0001) %MON dynstat_salt_min             =   1.0464259666960E+01
(PID.TID 0000.0001) %MON dynstat_salt_mean            =   1.1308814125926E+01
(PID.TID 0000.0001) %MON dynstat_salt_sd              =   5.1705187908836E-01
(PID.TID 0000.0001) %MON dynstat_salt_del2            =   5.6571823362180E-04
(PID.TID 0000.0001) %MON advcfl_uvel_max              =   4.8091163975593E-03
(PID.TID 0000.0001) %MON advcfl_vvel_max              =   3.2699937451302E-04
(PID.TID 0000.0001) %MON advcfl_wvel_max              =   2.5509097506281E-03
(PID.TID 0000.0001) %MON advcfl_W_hf_max              =   2.7760910846907E-03
(PID.TID 0000.0001) %MON pe_b_mean                    =   5.2839331337277E-05
(PID.TID 0000.0001) %MON ke_max                       =   8.9453565485719E-03
(PID.TID 0000.0001) %MON ke_mean                      =   2.0329648376427E-04
(PID.TID 0000.0001) %MON ke_vol                       =   5.0981346415358E+14
(PID.TID 0000.0001) // =======================================================
(PID.TID 0000.0001) // End MONITOR dynamic field statistics
(PID.TID 0000.0001) // =======================================================
 cg2d: Sum(rhs),rhsMax =  -3.33066907387547E-14  9.07843607037023E-01
(PID.TID 0000.0001)                    cg2d_init_res =    1.84927111943276E-03
(PID.TID 0000.0001)                       cg2d_iters =    28
(PID.TID 0000.0001)                         cg2d_res =    1.88810125002118E-16
(PID.TID 0000.0001) // =======================================================
(PID.TID 0000.0001) // Begin MONITOR dynamic field statistics
(PID.TID 0000.0001) // =======================================================
(PID.TID 0000.0001) %MON time_tsnumber                =                    22
(PID.TID 0000.0001) %MON time_secondsf                =   7.9200000000000E+04
(PID.TID 0000.0001) %MON dynstat_eta_max              =   3.5840746004401E-01
(PID.TID 0000.0001) %MON dynstat_eta_min              =  -8.1571747574412E-02
(PID.TID 0000.0001) %MON dynstat_eta_mean             =   2.7987162272135E-15
(PID.TID 0000.0001) %MON dynstat_eta_sd               =   1.3534427532646E-01
(PID.TID 0000.0001) %MON dynstat_eta_del2             =   5.7681153064387E-03
(PID.TID 0000.0001) %MON dynstat_uvel_max             =   1.3527615453395E-01
(PID.TID 0000.0001) %MON dynstat_uvel_min             =  -1.3625721484764E-01
(PID.TID 0000.0001) %MON dynstat_uvel_mean            =   1.5452643326150E-04
(PID.TID 0000.0001) %MON dynstat_uvel_sd              =   2.0480614891779E-02
(PID.TID 0000.0001) %MON dynstat_uvel_del2            =   5.6771401247034E-04
(PID.TID 0000.0001) %MON dynstat_vvel_max             =   1.0148621401642E-02
(PID.TID 0000.0001) %MON dynstat_vvel_min             =  -1.0741166461454E-02
(PID.TID 0000.0001) %MON dynstat_vvel_mean            =  -2.7580718305663E-05
(PID.TID 0000.0001) %MON dynstat_vvel_sd              =   1.6668869702820E-03
(PID.TID 0000.0001) %MON dynstat_vvel_del2            =   9.5480324812611E-05
(PID.TID 0000.0001) %MON dynstat_wvel_max             =   3.1891843164324E-05
(PID.TID 0000.0001) %MON dynstat_wvel_min             =  -1.9485393082177E-05
(PID.TID 0000.0001) %MON dynstat_wvel_mean            =   1.1920436756399E-22
(PID.TID 0000.0001) %MON dynstat_wvel_sd              =   7.3147484314361E-06
(PID.TID 0000.0001) %MON dynstat_wvel_del2            =   3.9264084450988E-07
(PID.TID 0000.0001) %MON dynstat_theta_max            =   1.3324830450132E+01
(PID.TID 0000.0001) %MON dynstat_theta_min            =   6.2538454577604E+00
(PID.TID 0000.0001) %MON dynstat_theta_mean           =   8.4641518638944E+00
(PID.TID 0000.0001) %MON dynstat_theta_sd             =   1.4058054337047E+00
(PID.TID 0000.0001) %MON dynstat_theta_del2           =   7.4003137944806E-03
(PID.TID 0000.0001) %MON dynstat_salt_max             =   1.1996598982599E+01
(PID.TID 0000.0001) %MON dynstat_salt_min             =   1.0464292957830E+01
(PID.TID 0000.0001) %MON dynstat_salt_mean            =   1.1308814102973E+01
(PID.TID 0000.0001) %MON dynstat_salt_sd              =   5.1704382742552E-01
(PID.TID 0000.0001) %MON dynstat_salt_del2            =   5.6579857256610E-04
(PID.TID 0000.0001) %MON advcfl_uvel_max              =   4.9052597345152E-03
(PID.TID 0000.0001) %MON advcfl_vvel_max              =   3.8668199261234E-04
(PID.TID 0000.0001) %MON advcfl_wvel_max              =   2.9878099607495E-03
(PID.TID 0000.0001) %MON advcfl_W_hf_max              =   3.2477205316943E-03
(PID.TID 0000.0001) %MON pe_b_mean                    =   5.2872366295008E-05
(PID.TID 0000.0001) %MON ke_max                       =   9.3097891167843E-03
(PID.TID 0000.0001) %MON ke_mean                      =   2.1107486048990E-04
(PID.TID 0000.0001) %MON ke_vol                       =   5.0981346415358E+14
(PID.TID 0000.0001) // =======================================================
(PID.TID 0000.0001) // End MONITOR dynamic field statistics
(PID.TID 0000.0001) // =======================================================
 cg2d: Sum(rhs),rhsMax =  -3.58081619911133E-14  9.06793558007363E-01
(PID.TID 0000.0001)                    cg2d_init_res =    2.09287844307505E-03
(PID.TID 0000.0001)                       cg2d_iters =    28
(PID.TID 0000.0001)                         cg2d_res =    2.57188509257153E-16
(PID.TID 0000.0001) // =======================================================
(PID.TID 0000.0001) // Begin MONITOR dynamic field statistics
(PID.TID 0000.0001) // =======================================================
(PID.TID 0000.0001) %MON time_tsnumber                =                    23
(PID.TID 0000.0001) %MON time_secondsf                =   8.2800000000000E+04
(PID.TID 0000.0001) %MON dynstat_eta_max              =   3.5844930618057E-01
(PID.TID 0000.0001) %MON dynstat_eta_min              =  -8.1336453303611E-02
(PID.TID 0000.0001) %MON dynstat_eta_mean             =   2.7920405069987E-15
(PID.TID 0000.0001) %MON dynstat_eta_sd               =   1.3538720133224E-01
(PID.TID 0000.0001) %MON dynstat_eta_del2             =   5.7666411705924E-03
(PID.TID 0000.0001) %MON dynstat_uvel_max             =   1.3766387207566E-01
(PID.TID 0000.0001) %MON dynstat_uvel_min             =  -1.3888404498439E-01
(PID.TID 0000.0001) %MON dynstat_uvel_mean            =   1.3967326024348E-04
(PID.TID 0000.0001) %MON dynstat_uvel_sd              =   2.0846663093797E-02
(PID.TID 0000.0001) %MON dynstat_uvel_del2            =   5.8432938881567E-04
(PID.TID 0000.0001) %MON dynstat_vvel_max             =   1.0667897744578E-02
(PID.TID 0000.0001) %MON dynstat_vvel_min             =  -1.1252148931304E-02
(PID.TID 0000.0001) %MON dynstat_vvel_mean            =  -3.6628004012512E-05
(PID.TID 0000.0001) %MON dynstat_vvel_sd              =   1.6508566599364E-03
(PID.TID 0000.0001) %MON dynstat_vvel_del2            =   1.0095518213303E-04
(PID.TID 0000.0001) %MON dynstat_wvel_max             =   3.2704633186987E-05
(PID.TID 0000.0001) %MON dynstat_wvel_min             =  -1.6561398344135E-05
(PID.TID 0000.0001) %MON dynstat_wvel_mean            =  -3.0762417435869E-23
(PID.TID 0000.0001) %MON dynstat_wvel_sd              =   7.5657028045130E-06
(PID.TID 0000.0001) %MON dynstat_wvel_del2            =   4.1079802991260E-07
(PID.TID 0000.0001) %MON dynstat_theta_max            =   1.3324965671997E+01
(PID.TID 0000.0001) %MON dynstat_theta_min            =   6.2538460669295E+00
(PID.TID 0000.0001) %MON dynstat_theta_mean           =   8.4641518189273E+00
(PID.TID 0000.0001) %MON dynstat_theta_sd             =   1.4058050380016E+00
(PID.TID 0000.0001) %MON dynstat_theta_del2           =   7.3986686585191E-03
(PID.TID 0000.0001) %MON dynstat_salt_max             =   1.1996606903749E+01
(PID.TID 0000.0001) %MON dynstat_salt_min             =   1.0464326601679E+01
(PID.TID 0000.0001) %MON dynstat_salt_mean            =   1.1308814073993E+01
(PID.TID 0000.0001) %MON dynstat_salt_sd              =   5.1703577568432E-01
(PID.TID 0000.0001) %MON dynstat_salt_del2            =   5.6587606564474E-04
(PID.TID 0000.0001) %MON advcfl_uvel_max              =   4.9998256194379E-03
(PID.TID 0000.0001) %MON advcfl_vvel_max              =   4.0507736152694E-04
(PID.TID 0000.0001) %MON advcfl_wvel_max              =   3.1110934798029E-03
(PID.TID 0000.0001) %MON advcfl_W_hf_max              =   3.3788712411787E-03
(PID.TID 0000.0001) %MON pe_b_mean                    =   5.2905909781210E-05
(PID.TID 0000.0001) %MON ke_max                       =   9.6682017414976E-03
(PID.TID 0000.0001) %MON ke_mean                      =   2.1861129340215E-04
(PID.TID 0000.0001) %MON ke_vol                       =   5.0981346415358E+14
(PID.TID 0000.0001) // =======================================================
(PID.TID 0000.0001) // End MONITOR dynamic field statistics
(PID.TID 0000.0001) // =======================================================
 cg2d: Sum(rhs),rhsMax =  -3.48852891018936E-14  9.05707379226191E-01
(PID.TID 0000.0001)                    cg2d_init_res =    2.11389150832532E-03
(PID.TID 0000.0001)                       cg2d_iters =    28
(PID.TID 0000.0001)                         cg2d_res =    3.05611971821827E-16
(PID.TID 0000.0001) // =======================================================
(PID.TID 0000.0001) // Begin MONITOR dynamic field statistics
(PID.TID 0000.0001) // =======================================================
(PID.TID 0000.0001) %MON time_tsnumber                =                    24
(PID.TID 0000.0001) %MON time_secondsf                =   8.6400000000000E+04
(PID.TID 0000.0001) %MON dynstat_eta_max              =   3.5846361637107E-01
(PID.TID 0000.0001) %MON dynstat_eta_min              =  -8.1129444642135E-02
(PID.TID 0000.0001) %MON dynstat_eta_mean             =   2.7678807576497E-15
(PID.TID 0000.0001) %MON dynstat_eta_sd               =   1.3541749960808E-01
(PID.TID 0000.0001) %MON dynstat_eta_del2             =   5.7653284276204E-03
(PID.TID 0000.0001) %MON dynstat_uvel_max             =   1.3967007174017E-01
(PID.TID 0000.0001) %MON dynstat_uvel_min             =  -1.4109802986959E-01
(PID.TID 0000.0001) %MON dynstat_uvel_mean            =   1.2464736117228E-04
(PID.TID 0000.0001) %MON dynstat_uvel_sd              =   2.1160789401857E-02
(PID.TID 0000.0001) %MON dynstat_uvel_del2            =   6.0130253159124E-04
(PID.TID 0000.0001) %MON dynstat_vvel_max             =   1.0117442697858E-02
(PID.TID 0000.0001) %MON dynstat_vvel_min             =  -1.0607951404645E-02
(PID.TID 0000.0001) %MON dynstat_vvel_mean            =  -3.1828802749407E-05
(PID.TID 0000.0001) %MON dynstat_vvel_sd              =   1.4879452428793E-03
(PID.TID 0000.0001) %MON dynstat_vvel_del2            =   1.0075867162476E-04
(PID.TID 0000.0001) %MON dynstat_wvel_max             =   3.0250575012440E-05
(PID.TID 0000.0001) %MON dynstat_wvel_min             =  -1.5444311686921E-05
(PID.TID 0000.0001) %MON dynstat_wvel_mean            =   1.4612148282038E-22
(PID.TID 0000.0001) %MON dynstat_wvel_sd              =   7.2313754156808E-06
(PID.TID 0000.0001) %MON dynstat_wvel_del2            =   4.1323190704876E-07
(PID.TID 0000.0001) %MON dynstat_theta_max            =   1.3325099160266E+01
(PID.TID 0000.0001) %MON dynstat_theta_min            =   6.2538467286799E+00
(PID.TID 0000.0001) %MON dynstat_theta_mean           =   8.4641517855466E+00
(PID.TID 0000.0001) %MON dynstat_theta_sd             =   1.4058046625579E+00
(PID.TID 0000.0001) %MON dynstat_theta_del2           =   7.3971519253202E-03
(PID.TID 0000.0001) %MON dynstat_salt_max             =   1.1996614725359E+01
(PID.TID 0000.0001) %MON dynstat_salt_min             =   1.0464360617051E+01
(PID.TID 0000.0001) %MON dynstat_salt_mean            =   1.1308814053084E+01
(PID.TID 0000.0001) %MON dynstat_salt_sd              =   5.1702772347672E-01
(PID.TID 0000.0001) %MON dynstat_salt_del2            =   5.6595297100516E-04
(PID.TID 0000.0001) %MON advcfl_uvel_max              =   5.0795290753051E-03
(PID.TID 0000.0001) %MON advcfl_vvel_max              =   3.8188625056721E-04
(PID.TID 0000.0001) %MON advcfl_wvel_max              =   2.9208431097702E-03
(PID.TID 0000.0001) %MON advcfl_W_hf_max              =   3.1697185502774E-03
(PID.TID 0000.0001) %MON pe_b_mean                    =   5.2929592037655E-05
(PID.TID 0000.0001) %MON ke_max                       =   9.9698877159276E-03
(PID.TID 0000.0001) %MON ke_mean                      =   2.2496132815436E-04
(PID.TID 0000.0001) %MON ke_vol                       =   5.0981346415358E+14
(PID.TID 0000.0001) // =======================================================
(PID.TID 0000.0001) // End MONITOR dynamic field statistics
(PID.TID 0000.0001) // =======================================================
 cg2d: Sum(rhs),rhsMax =  -3.60197982551824E-14  9.04682763992512E-01
(PID.TID 0000.0001)                    cg2d_init_res =    1.96843654322694E-03
(PID.TID 0000.0001)                       cg2d_iters =    28
(PID.TID 0000.0001)                         cg2d_res =    3.34346543737424E-16
(PID.TID 0000.0001) // =======================================================
(PID.TID 0000.0001) // Begin MONITOR dynamic field statistics
(PID.TID 0000.0001) // =======================================================
(PID.TID 0000.0001) %MON time_tsnumber                =                    25
(PID.TID 0000.0001) %MON time_secondsf                =   9.0000000000000E+04
(PID.TID 0000.0001) %MON dynstat_eta_max              =   3.5845243246407E-01
(PID.TID 0000.0001) %MON dynstat_eta_min              =  -8.1013911109174E-02
(PID.TID 0000.0001) %MON dynstat_eta_mean             =   3.1274159749349E-15
(PID.TID 0000.0001) %MON dynstat_eta_sd               =   1.3543618238325E-01
(PID.TID 0000.0001) %MON dynstat_eta_del2             =   5.7643502017284E-03
(PID.TID 0000.0001) %MON dynstat_uvel_max             =   1.4102616808706E-01
(PID.TID 0000.0001) %MON dynstat_uvel_min             =  -1.4259468704840E-01
(PID.TID 0000.0001) %MON dynstat_uvel_mean            =   1.1435432862722E-04
(PID.TID 0000.0001) %MON dynstat_uvel_sd              =   2.1383567161996E-02
(PID.TID 0000.0001) %MON dynstat_uvel_del2            =   6.1652545962216E-04
(PID.TID 0000.0001) %MON dynstat_vvel_max             =   8.5976640088145E-03
(PID.TID 0000.0001) %MON dynstat_vvel_min             =  -8.9320534882765E-03
(PID.TID 0000.0001) %MON dynstat_vvel_mean            =  -1.7685861519515E-05
(PID.TID 0000.0001) %MON dynstat_vvel_sd              =   1.2279294128587E-03
(PID.TID 0000.0001) %MON dynstat_vvel_del2            =   9.5310057029609E-05
(PID.TID 0000.0001) %MON dynstat_wvel_max             =   2.4919210403041E-05
(PID.TID 0000.0001) %MON dynstat_wvel_min             =  -1.3722398474086E-05
(PID.TID 0000.0001) %MON dynstat_wvel_mean            =  -4.6143626153803E-23
(PID.TID 0000.0001) %MON dynstat_wvel_sd              =   6.4262364048270E-06
(PID.TID 0000.0001) %MON dynstat_wvel_del2            =   4.0039355573237E-07
(PID.TID 0000.0001) %MON dynstat_theta_max            =   1.3325219984784E+01
(PID.TID 0000.0001) %MON dynstat_theta_min            =   6.2538474363334E+00
(PID.TID 0000.0001) %MON dynstat_theta_mean           =   8.4641517678362E+00
(PID.TID 0000.0001) %MON dynstat_theta_sd             =   1.4058043154228E+00
(PID.TID 0000.0001) %MON dynstat_theta_del2           =   7.3959073180239E-03
(PID.TID 0000.0001) %MON dynstat_salt_max             =   1.1996621988607E+01
(PID.TID 0000.0001) %MON dynstat_salt_min             =   1.0464395027365E+01
(PID.TID 0000.0001) %MON dynstat_salt_mean            =   1.1308814042781E+01
(PID.TID 0000.0001) %MON dynstat_salt_sd              =   5.1701967085437E-01
(PID.TID 0000.0001) %MON dynstat_salt_del2            =   5.6602893108845E-04
(PID.TID 0000.0001) %MON advcfl_uvel_max              =   5.1334087337425E-03
(PID.TID 0000.0001) %MON advcfl_vvel_max              =   3.2155392557795E-04
(PID.TID 0000.0001) %MON advcfl_wvel_max              =   2.4513839783908E-03
(PID.TID 0000.0001) %MON advcfl_W_hf_max              =   2.6576154471813E-03
(PID.TID 0000.0001) %MON pe_b_mean                    =   5.2944197829160E-05
(PID.TID 0000.0001) %MON ke_max                       =   1.0173113915907E-02
(PID.TID 0000.0001) %MON ke_mean                      =   2.2935949447609E-04
(PID.TID 0000.0001) %MON ke_vol                       =   5.0981346415358E+14
(PID.TID 0000.0001) // =======================================================
(PID.TID 0000.0001) // End MONITOR dynamic field statistics
(PID.TID 0000.0001) // =======================================================
 Computing Diagnostic #     23  ETAN         Counter:       1   Parms: SM      M1      
 Computing Diagnostic #     24  ETANSQ       Counter:       1   Parms: SM P    M1      
 Computing Diagnostic #     25  DETADT2      Counter:       1   Parms: SM      M1      
 Computing Diagnostic #     69  PHIBOT       Counter:       1   Parms: SM      M1      
 Computing Diagnostic #     70  PHIBOTSQ     Counter:       1   Parms: SM P    M1      
 Computing Diagnostic #     71  MXLDEPTH     Counter:       1   Parms: SM      M1      
 Computing Diagnostic #    190  GM_BVPcW     Counter:       1   Parms: SU P    M1      
 Computing Diagnostic #    191  GM_BVPcS     Counter:       1   Parms: SV P    M1      
 Computing Diagnostic #     72  DRHODR       Counter:       1   Parms: SM      LR      
 Computing Diagnostic #     62  RHOAnoma     Counter:       1   Parms: SMR     MR      
 Computing Diagnostic #    182  GM_Kwy       Counter:       1   Parms: VM      LR      
           Vector  Mate for  GM_Kwy       Diagnostic #    181  GM_Kwx   not enabled
 Computing Diagnostic #    183  GM_Kwz       Counter:       1   Parms: WM P    LR      
 Computing Diagnostic #    178  GM_Kvy       Counter:       1   Parms: VV P    MR      
           Vector  Mate for  GM_Kvy       Diagnostic #    177  GM_Kux   not enabled
 Computing Diagnostic #     26  THETA        Counter:       1   Parms: SMR     MR      
 Computing Diagnostic #    185  GM_PsiY      Counter:       1   Parms: VV      LR      
           Vector  Mate for  GM_PsiY      Diagnostic #    184  GM_PsiX  not enabled
 Computing Diagnostic #    180  GM_Kvz       Counter:       1   Parms: VV      MR      
           Vector  Mate for  GM_Kvz       Diagnostic #    179  GM_Kuz   not enabled
 Compute Stats, Diag. #     23  ETAN      vol(   0 ): 1.500E+12  Parms: SM      M1      
 Compute Stats, Diag. #     30  UVEL      vol(   0 ): 2.549E+15  Parms: UUR     MR      
 Compute Stats, Diag. #     31  VVEL      vol(   0 ): 2.449E+15  Parms: VVR     MR      
 Compute Stats, Diag. #     32  WVEL      vol(   0 ): 2.422E+15  Parms: WM      LR      
 Compute Stats, Diag. #     26  THETA     vol(   0 ): 2.549E+15  Parms: SMR     MR      
 Compute Stats, Diag. #     71  MXLDEPTH  vol(   0 ): 1.500E+12  Parms: SM      M1      
 Compute Stats, Diag. #    182  GM_Kwy    vol(   0 ): 2.422E+15  Parms: VM      LR      
 Compute Stats, Diag. #    183  GM_Kwz    vol(   0 ): 2.422E+15  Parms: WM P    LR      
 Compute Stats, Diag. #    178  GM_Kvy    vol(   0 ): 2.449E+15  Parms: VV P    MR      
 Compute Stats, Diag. #    185  GM_PsiY   vol(   0 ): 2.330E+15  Parms: VV      LR      
 Compute Stats, Diag. #    180  GM_Kvz    vol(   0 ): 2.449E+15  Parms: VV      MR      
(PID.TID 0000.0001) DIAGSTATS_CLOSE_IO: close file: dynStDiag.0000000000.txt , unit=     9
(PID.TID 0000.0001) %CHECKPOINT        25 ckptA
(PID.TID 0000.0001)   Seconds in section "ALL                    [THE_MODEL_MAIN]":
(PID.TID 0000.0001)           User time:   1.7000000000000000
(PID.TID 0000.0001)         System time:  1.00000000000000002E-002
(PID.TID 0000.0001)     Wall clock time:   1.7206268310546875
(PID.TID 0000.0001)          No. starts:           1
(PID.TID 0000.0001)           No. stops:           1
(PID.TID 0000.0001)   Seconds in section "INITIALISE_FIXED       [THE_MODEL_MAIN]":
(PID.TID 0000.0001)           User time:  2.00000000000000004E-002
(PID.TID 0000.0001)         System time:   0.0000000000000000
(PID.TID 0000.0001)     Wall clock time:  2.78809070587158203E-002
(PID.TID 0000.0001)          No. starts:           1
(PID.TID 0000.0001)           No. stops:           1
(PID.TID 0000.0001)   Seconds in section "THE_MAIN_LOOP          [THE_MODEL_MAIN]":
(PID.TID 0000.0001)           User time:   1.6799999999999999
(PID.TID 0000.0001)         System time:  1.00000000000000002E-002
(PID.TID 0000.0001)     Wall clock time:   1.6926908493041992
(PID.TID 0000.0001)          No. starts:           1
(PID.TID 0000.0001)           No. stops:           1
(PID.TID 0000.0001)   Seconds in section "INITIALISE_VARIA    [THE_MAIN_LOOP]":
(PID.TID 0000.0001)           User time:  9.99999999999999847E-003
(PID.TID 0000.0001)         System time:   0.0000000000000000
(PID.TID 0000.0001)     Wall clock time:  1.57670974731445313E-002
(PID.TID 0000.0001)          No. starts:           1
(PID.TID 0000.0001)           No. stops:           1
(PID.TID 0000.0001)   Seconds in section "MAIN LOOP           [THE_MAIN_LOOP]":
(PID.TID 0000.0001)           User time:   1.6699999999999999
(PID.TID 0000.0001)         System time:  1.00000000000000002E-002
(PID.TID 0000.0001)     Wall clock time:   1.6768949031829834
(PID.TID 0000.0001)          No. starts:           1
(PID.TID 0000.0001)           No. stops:           1
(PID.TID 0000.0001)   Seconds in section "FORWARD_STEP        [THE_MAIN_LOOP]":
(PID.TID 0000.0001)           User time:   1.6699999999999988
(PID.TID 0000.0001)         System time:  1.00000000000000002E-002
(PID.TID 0000.0001)     Wall clock time:   1.6766643524169922
(PID.TID 0000.0001)          No. starts:          25
(PID.TID 0000.0001)           No. stops:          25
(PID.TID 0000.0001)   Seconds in section "DO_STATEVARS_DIAGS  [FORWARD_STEP]":
(PID.TID 0000.0001)           User time:  2.00000000000000178E-002
(PID.TID 0000.0001)         System time:   0.0000000000000000
(PID.TID 0000.0001)     Wall clock time:  6.77633285522460938E-003
(PID.TID 0000.0001)          No. starts:          50
(PID.TID 0000.0001)           No. stops:          50
(PID.TID 0000.0001)   Seconds in section "LOAD_FIELDS_DRIVER  [FORWARD_STEP]":
(PID.TID 0000.0001)           User time:   0.0000000000000000
(PID.TID 0000.0001)         System time:   0.0000000000000000
(PID.TID 0000.0001)     Wall clock time:  6.73532485961914063E-004
(PID.TID 0000.0001)          No. starts:          25
(PID.TID 0000.0001)           No. stops:          25
(PID.TID 0000.0001)   Seconds in section "EXTERNAL_FLDS_LOAD [LOAD_FLDS_DRIVER]":
(PID.TID 0000.0001)           User time:   0.0000000000000000
(PID.TID 0000.0001)         System time:   0.0000000000000000
(PID.TID 0000.0001)     Wall clock time:  2.26020812988281250E-004
(PID.TID 0000.0001)          No. starts:          25
(PID.TID 0000.0001)           No. stops:          25
(PID.TID 0000.0001)   Seconds in section "DO_ATMOSPHERIC_PHYS [FORWARD_STEP]":
(PID.TID 0000.0001)           User time:   0.0000000000000000
(PID.TID 0000.0001)         System time:   0.0000000000000000
(PID.TID 0000.0001)     Wall clock time:  2.25782394409179688E-004
(PID.TID 0000.0001)          No. starts:          25
(PID.TID 0000.0001)           No. stops:          25
(PID.TID 0000.0001)   Seconds in section "DO_OCEANIC_PHYS     [FORWARD_STEP]":
(PID.TID 0000.0001)           User time:  0.30999999999999983
(PID.TID 0000.0001)         System time:   0.0000000000000000
(PID.TID 0000.0001)     Wall clock time:  0.31440687179565430
(PID.TID 0000.0001)          No. starts:          25
(PID.TID 0000.0001)           No. stops:          25
(PID.TID 0000.0001)   Seconds in section "THERMODYNAMICS      [FORWARD_STEP]":
(PID.TID 0000.0001)           User time:  0.52000000000000002
(PID.TID 0000.0001)         System time:   0.0000000000000000
(PID.TID 0000.0001)     Wall clock time:  0.53809285163879395
(PID.TID 0000.0001)          No. starts:          25
(PID.TID 0000.0001)           No. stops:          25
(PID.TID 0000.0001)   Seconds in section "DYNAMICS            [FORWARD_STEP]":
(PID.TID 0000.0001)           User time:  0.58999999999999986
(PID.TID 0000.0001)         System time:  1.00000000000000002E-002
(PID.TID 0000.0001)     Wall clock time:  0.58463954925537109
(PID.TID 0000.0001)          No. starts:          25
(PID.TID 0000.0001)           No. stops:          25
(PID.TID 0000.0001)   Seconds in section "SOLVE_FOR_PRESSURE  [FORWARD_STEP]":
(PID.TID 0000.0001)           User time:  2.99999999999998046E-002
(PID.TID 0000.0001)         System time:   0.0000000000000000
(PID.TID 0000.0001)     Wall clock time:  3.11448574066162109E-002
(PID.TID 0000.0001)          No. starts:          25
(PID.TID 0000.0001)           No. stops:          25
(PID.TID 0000.0001)   Seconds in section "MOM_CORRECTION_STEP [FORWARD_STEP]":
(PID.TID 0000.0001)           User time:  3.00000000000000266E-002
(PID.TID 0000.0001)         System time:   0.0000000000000000
(PID.TID 0000.0001)     Wall clock time:  2.01449394226074219E-002
(PID.TID 0000.0001)          No. starts:          25
(PID.TID 0000.0001)           No. stops:          25
(PID.TID 0000.0001)   Seconds in section "TRC_CORRECTION_STEP [FORWARD_STEP]":
(PID.TID 0000.0001)           User time:  5.00000000000000444E-002
(PID.TID 0000.0001)         System time:   0.0000000000000000
(PID.TID 0000.0001)     Wall clock time:  5.35056591033935547E-002
(PID.TID 0000.0001)          No. starts:          25
(PID.TID 0000.0001)           No. stops:          25
(PID.TID 0000.0001)   Seconds in section "BLOCKING_EXCHANGES  [FORWARD_STEP]":
(PID.TID 0000.0001)           User time:  5.00000000000000444E-002
(PID.TID 0000.0001)         System time:   0.0000000000000000
(PID.TID 0000.0001)     Wall clock time:  6.11872673034667969E-002
(PID.TID 0000.0001)          No. starts:          25
(PID.TID 0000.0001)           No. stops:          25
(PID.TID 0000.0001)   Seconds in section "MONITOR             [FORWARD_STEP]":
(PID.TID 0000.0001)           User time:  6.00000000000000533E-002
(PID.TID 0000.0001)         System time:   0.0000000000000000
(PID.TID 0000.0001)     Wall clock time:  4.22904491424560547E-002
(PID.TID 0000.0001)          No. starts:          25
(PID.TID 0000.0001)           No. stops:          25
(PID.TID 0000.0001)   Seconds in section "DO_THE_MODEL_IO     [FORWARD_STEP]":
(PID.TID 0000.0001)           User time:  1.00000000000000089E-002
(PID.TID 0000.0001)         System time:   0.0000000000000000
(PID.TID 0000.0001)     Wall clock time:  1.86135768890380859E-002
(PID.TID 0000.0001)          No. starts:          25
(PID.TID 0000.0001)           No. stops:          25
(PID.TID 0000.0001)   Seconds in section "DO_WRITE_PICKUP     [FORWARD_STEP]":
(PID.TID 0000.0001)           User time:   0.0000000000000000
(PID.TID 0000.0001)         System time:   0.0000000000000000
(PID.TID 0000.0001)     Wall clock time:  1.41692161560058594E-003
(PID.TID 0000.0001)          No. starts:          25
(PID.TID 0000.0001)           No. stops:          25
(PID.TID 0000.0001) // ======================================================
(PID.TID 0000.0001) // Tile <-> Tile communication statistics
(PID.TID 0000.0001) // ======================================================
(PID.TID 0000.0001) // o Tile number: 000001
(PID.TID 0000.0001) //         No. X exchanges =              0
(PID.TID 0000.0001) //            Max. X spins =              0
(PID.TID 0000.0001) //            Min. X spins =     1000000000
(PID.TID 0000.0001) //          Total. X spins =              0
(PID.TID 0000.0001) //            Avg. X spins =       0.00E+00
(PID.TID 0000.0001) //         No. Y exchanges =              0
(PID.TID 0000.0001) //            Max. Y spins =              0
(PID.TID 0000.0001) //            Min. Y spins =     1000000000
(PID.TID 0000.0001) //          Total. Y spins =              0
(PID.TID 0000.0001) //            Avg. Y spins =       0.00E+00
(PID.TID 0000.0001) // o Tile number: 000002
(PID.TID 0000.0001) //         No. X exchanges =              0
(PID.TID 0000.0001) //            Max. X spins =              0
(PID.TID 0000.0001) //            Min. X spins =     1000000000
(PID.TID 0000.0001) //          Total. X spins =              0
(PID.TID 0000.0001) //            Avg. X spins =       0.00E+00
(PID.TID 0000.0001) //         No. Y exchanges =              0
(PID.TID 0000.0001) //            Max. Y spins =              0
(PID.TID 0000.0001) //            Min. Y spins =     1000000000
(PID.TID 0000.0001) //          Total. Y spins =              0
(PID.TID 0000.0001) //            Avg. Y spins =       0.00E+00
(PID.TID 0000.0001) // o Thread number: 000001
(PID.TID 0000.0001) //            No. barriers =          18714
(PID.TID 0000.0001) //      Max. barrier spins =              1
(PID.TID 0000.0001) //      Min. barrier spins =              1
(PID.TID 0000.0001) //     Total barrier spins =          18714
(PID.TID 0000.0001) //      Avg. barrier spins =       1.00E+00
PROGRAM MAIN: Execution ended Normally
