(PID.TID 0000.0001) 
(PID.TID 0000.0001) // ======================================================
(PID.TID 0000.0001) //                      MITgcm UV
(PID.TID 0000.0001) //                      =========
(PID.TID 0000.0001) // ======================================================
(PID.TID 0000.0001) // execution environment starting up...
(PID.TID 0000.0001) // Run starting Wed Apr  1 14:19:48 1998
(PID.TID 0000.0001) // on melville.lcs.mit.edu
(PID.TID 0000.0001) // account cnh
(PID.TID 0000.0001) // MITgcm UV Release: $Name:  $
(PID.TID 0000.0001) 
(PID.TID 0000.0001) // =======================================================
(PID.TID 0000.0001) // Execution Environment parameter file "eedata"
(PID.TID 0000.0001) // =======================================================
(PID.TID 0000.0001) ># Example "eedata" file
(PID.TID 0000.0001) ># Lines beginning "#" are comments
(PID.TID 0000.0001) ># nTx - No. threads per process in X
(PID.TID 0000.0001) ># nTy - No. threads per process in Y
(PID.TID 0000.0001) > &EEPARMS
(PID.TID 0000.0001) > &
(PID.TID 0000.0001) ># Note: Some systems use & as the
(PID.TID 0000.0001) ># namelist terminator. Other systems
(PID.TID 0000.0001) ># use a / character (as shown here).
(PID.TID 0000.0001) 
(PID.TID 0000.0001) // =======================================================
(PID.TID 0000.0001) // Computational Grid Specification ( see files "SIZE.h" )
(PID.TID 0000.0001) //                                  ( and "eedata"       )
(PID.TID 0000.0001) // =======================================================
(PID.TID 0000.0001)      nPx =    1 ; /* No. processes in X */
(PID.TID 0000.0001)      nPy =    1 ; /* No. processes in Y */
(PID.TID 0000.0001)      nSx =    1 ; /* No. tiles in X per process */
(PID.TID 0000.0001)      nSy =    1 ; /* No. tiles in Y per process */
(PID.TID 0000.0001)      sNx =  128 ; /* Tile size in X */
(PID.TID 0000.0001)      sNy =   64 ; /* Tile size in Y */
(PID.TID 0000.0001)      OLx =    2 ; /* Tile overlap distance in X */
(PID.TID 0000.0001)      OLy =    2 ; /* Tile overlap distance in Y */
(PID.TID 0000.0001)      nTx =    1 ; /* No. threads in X per process */
(PID.TID 0000.0001)      nTy =    1 ; /* No. threads in Y per process */
(PID.TID 0000.0001)       Nr =    1 ; /* No. levels in the vertical   */
(PID.TID 0000.0001)       nX =  128 ; /* Total domain size in X ( = nPx*nSx*sNx ) */
(PID.TID 0000.0001)       nY =   64 ; /* Total domain size in Y ( = nPy*nSy*sNy ) */
(PID.TID 0000.0001)   nTiles =    1 ; /* Total no. tiles per process ( = nSx*nSy ) */
(PID.TID 0000.0001)   nProcs =    1 ; /* Total no. processes ( = nPx*nPy ) */
(PID.TID 0000.0001) nThreads =    1 ; /* Total no. threads per process ( = nTx*nTy ) */
(PID.TID 0000.0001) usingMPI =    F ; /* Flag used to control whether MPI is in use */
(PID.TID 0000.0001)                   /*  note: To execute a program with MPI calls */
(PID.TID 0000.0001)                   /*  it must be launched appropriately e.g     */
(PID.TID 0000.0001)                   /*  "mpirun -np 64 ......"                    */
(PID.TID 0000.0001) 
(PID.TID 0000.0001) // ======================================================
(PID.TID 0000.0001) // Mapping of tiles to threads
(PID.TID 0000.0001) // ======================================================
(PID.TID 0000.0001) // -o- Thread   1, tiles (   1:   1,   1:   1)
(PID.TID 0000.0001) 
(PID.TID 0000.0001) // ======================================================
(PID.TID 0000.0001) // Tile <-> Tile connectvity table
(PID.TID 0000.0001) // ======================================================
(PID.TID 0000.0001) // Tile number: 000001 (process no. = 000001)
(PID.TID 0000.0001) //        WEST: Tile = 000001, Process = 000001, Comm = put
(PID.TID 0000.0001) //                bi = 000001, bj = 000001
(PID.TID 0000.0001) //        EAST: Tile = 000001, Process = 000001, Comm = put
(PID.TID 0000.0001) //                bi = 000001, bj = 000001
(PID.TID 0000.0001) //       SOUTH: Tile = 000001, Process = 000001, Comm = put
(PID.TID 0000.0001) //                bi = 000001, bj = 000001
(PID.TID 0000.0001) //       NORTH: Tile = 000001, Process = 000001, Comm = put
(PID.TID 0000.0001) //                bi = 000001, bj = 000001
(PID.TID 0000.0001) 
(PID.TID 0000.0001) // =======================================================
(PID.TID 0000.0001) // Model parameter file "data"
(PID.TID 0000.0001) // =======================================================
(PID.TID 0000.0001) ># ====================
(PID.TID 0000.0001) ># | Model parameters |
(PID.TID 0000.0001) ># ====================
(PID.TID 0000.0001) >#
(PID.TID 0000.0001) ># Continuous equation parameters
(PID.TID 0000.0001) > &PARM01
(PID.TID 0000.0001) > tRef=300.,
(PID.TID 0000.0001) > sRef=0.,
(PID.TID 0000.0001) > viscAr=0.,
(PID.TID 0000.0001) > viscAh=0.,
(PID.TID 0000.0001) > viscA4=0.,
(PID.TID 0000.0001) > no_slip_sides=.FALSE.,
(PID.TID 0000.0001) > no_slip_bottom=.FALSE.,
(PID.TID 0000.0001) > diffKrT=0.,
(PID.TID 0000.0001) > diffKhT=0.,
(PID.TID 0000.0001) > diffK4T=0.,
(PID.TID 0000.0001) > diffKrS=0.,
(PID.TID 0000.0001) > diffKhS=0.,
(PID.TID 0000.0001) > diffK4S=0.,
(PID.TID 0000.0001) > buoyancyRelation='ATMOSPHERIC',
(PID.TID 0000.0001) > eosType='IDEALGAS',
(PID.TID 0000.0001) > gravity=9.81,
(PID.TID 0000.0001) > gBaro=9.81,
(PID.TID 0000.0001) > rhonil=1.0,
(PID.TID 0000.0001) > rhoConst=1.0,
(PID.TID 0000.0001) > rigidLid=.FALSE.,
(PID.TID 0000.0001) > implicitFreeSurface=.TRUE.,
(PID.TID 0000.0001) > nonHydrostatic=.FALSE.,
(PID.TID 0000.0001) > readBinaryPrec=64,
(PID.TID 0000.0001) > writeBinaryPrec=64,
(PID.TID 0000.0001) > momAdvection=.FALSE.,
(PID.TID 0000.0001) > useCoriolis=.FALSE.,
(PID.TID 0000.0001) > tempStepping=.FALSE.,
(PID.TID 0000.0001) > saltStepping=.FALSE.,
(PID.TID 0000.0001) >#implicSurfPress=0.5,
(PID.TID 0000.0001) >#implicDiv2DFlow=0.5,
(PID.TID 0000.0001) > &
(PID.TID 0000.0001) >
(PID.TID 0000.0001) ># Elliptic solver parameters
(PID.TID 0000.0001) > &PARM02
(PID.TID 0000.0001) > cg2dMaxIters=600,
(PID.TID 0000.0001) > cg2dTargetResidual=1.E-12,
(PID.TID 0000.0001) > &
(PID.TID 0000.0001) >
(PID.TID 0000.0001) ># Time stepping parameters
(PID.TID 0000.0001) > &PARM03
(PID.TID 0000.0001) > niter0=0,
(PID.TID 0000.0001) > nTimeSteps=24,
(PID.TID 0000.0001) > abEps=0.1,
(PID.TID 0000.0001) > deltaT=450.0,
(PID.TID 0000.0001) > cAdjFreq=0.,
(PID.TID 0000.0001) > pChkptFreq=0.0,
(PID.TID 0000.0001) > chkptFreq=0.0,
(PID.TID 0000.0001) > dumpFreq=3600.0,
(PID.TID 0000.0001) > monitorFreq=1.,
(PID.TID 0000.0001) > &
(PID.TID 0000.0001) >
(PID.TID 0000.0001) ># Gridding parameters
(PID.TID 0000.0001) > &PARM04
(PID.TID 0000.0001) > usingCartesianGrid=.FALSE.,
(PID.TID 0000.0001) > usingSphericalPolarGrid=.TRUE.,
(PID.TID 0000.0001) > delX=128*2.8125,
(PID.TID 0000.0001) > delY=64*2.8125,
(PID.TID 0000.0001) > delR=1.E5,
(PID.TID 0000.0001) > Ro_SeaLevel=1.E5,
(PID.TID 0000.0001) > groundAtK1=.TRUE.,
(PID.TID 0000.0001) > phiMin=-90.,
(PID.TID 0000.0001) > &
(PID.TID 0000.0001) >
(PID.TID 0000.0001) ># Input datasets
(PID.TID 0000.0001) > &PARM05
(PID.TID 0000.0001) > pSurfInitFile='ps.init',
(PID.TID 0000.0001) > &
(PID.TID 0000.0001) 
(PID.TID 0000.0001) S/R INI_PARMS ; read PARM01 : OK
(PID.TID 0000.0001) S/R INI_PARMS ; read PARM02 : OK
(PID.TID 0000.0001) S/R INI_PARMS ; read PARM03 : OK
(PID.TID 0000.0001) S/R INI_PARMS ; read PARM04 : OK
(PID.TID 0000.0001) S/R INI_PARMS ; read PARM05 : OK
(PID.TID 0000.0001) %MON XC_max                       =   3.5859375000000E+02
(PID.TID 0000.0001) %MON XC_min                       =   1.4062500000000E+00
(PID.TID 0000.0001) %MON XC_mean                      =   1.8000000000000E+02
(PID.TID 0000.0001) %MON XC_sd                        =   1.0391987692599E+02
(PID.TID 0000.0001) %MON XG_max                       =   3.5718750000000E+02
(PID.TID 0000.0001) %MON XG_min                       =   2.8125000000000E+00
(PID.TID 0000.0001) %MON XG_mean                      =   1.8000000000000E+02
(PID.TID 0000.0001) %MON XG_sd                        =   1.0310795313651E+02
(PID.TID 0000.0001) %MON DXC_max                      =   3.1259246843155E+05
(PID.TID 0000.0001) %MON DXC_min                      =   7.6737143816223E+03
(PID.TID 0000.0001) %MON DXC_mean                     =   1.9908248704234E+05
(PID.TID 0000.0001) %MON DXC_sd                       =   9.6190602240068E+04
(PID.TID 0000.0001) %MON DXF_max                      =   3.1259246843155E+05
(PID.TID 0000.0001) %MON DXF_min                      =   7.6737143816223E+03
(PID.TID 0000.0001) %MON DXF_mean                     =   1.9908248704234E+05
(PID.TID 0000.0001) %MON DXF_sd                       =   9.6190602240068E+04
(PID.TID 0000.0001) %MON DXG_max                      =   3.1268664380261E+05
(PID.TID 0000.0001) %MON DXG_min                      =   1.5342806404640E+04
(PID.TID 0000.0001) %MON DXG_mean                     =   2.0218161485138E+05
(PID.TID 0000.0001) %MON DXG_sd                       =   9.3728538420912E+04
(PID.TID 0000.0001) %MON DXV_max                      =   3.1268664380261E+05
(PID.TID 0000.0001) %MON DXV_min                      =   1.5342806404640E+04
(PID.TID 0000.0001) %MON DXV_mean                     =   2.0218161485138E+05
(PID.TID 0000.0001) %MON DXV_sd                       =   9.3728538420912E+04
(PID.TID 0000.0001) %MON YC_max                       =   8.8593750000000E+01
(PID.TID 0000.0001) %MON YC_min                       =  -8.8593750000000E+01
(PID.TID 0000.0001) %MON YC_mean                      =   0.0000000000000E+00
(PID.TID 0000.0001) %MON YC_sd                        =   5.1955180880375E+01
(PID.TID 0000.0001) %MON YG_max                       =   8.7187500000000E+01
(PID.TID 0000.0001) %MON YG_min                       =  -9.0000000000000E+01
(PID.TID 0000.0001) %MON YG_mean                      =  -1.4285714285714E+00
(PID.TID 0000.0001) %MON YG_sd                        =   5.2365595692639E+01
(PID.TID 0000.0001) %MON DYC_max                      =   3.1268664380261E+05
(PID.TID 0000.0001) %MON DYC_min                      =   3.1268664380261E+05
(PID.TID 0000.0001) %MON DYC_mean                     =   3.1268664380263E+05
(PID.TID 0000.0001) %MON DYC_sd                       =   2.4156179279089E-08
(PID.TID 0000.0001) %MON DYF_max                      =   3.1268664380261E+05
(PID.TID 0000.0001) %MON DYF_min                      =   3.1268664380261E+05
(PID.TID 0000.0001) %MON DYF_mean                     =   3.1268664380263E+05
(PID.TID 0000.0001) %MON DYF_sd                       =   2.4156179279089E-08
(PID.TID 0000.0001) %MON DYG_max                      =   3.1268664380261E+05
(PID.TID 0000.0001) %MON DYG_min                      =   3.1268664380261E+05
(PID.TID 0000.0001) %MON DYG_mean                     =   3.1268664380263E+05
(PID.TID 0000.0001) %MON DYG_sd                       =   2.4156179279089E-08
(PID.TID 0000.0001) %MON DYU_max                      =   3.1268664380261E+05
(PID.TID 0000.0001) %MON DYU_min                      =   3.1268664380261E+05
(PID.TID 0000.0001) %MON DYU_mean                     =   3.1268664380263E+05
(PID.TID 0000.0001) %MON DYU_sd                       =   2.4156179279089E-08
(PID.TID 0000.0001) %MON RA_max                       =   9.7733676797555E+10
(PID.TID 0000.0001) %MON RA_min                       =   2.3992270990191E+09
(PID.TID 0000.0001) %MON RA_mean                      =   6.2244185031957E+10
(PID.TID 0000.0001) %MON RA_sd                        =   3.0074496923945E+10
(PID.TID 0000.0001) %MON RAW_max                      =   9.7733676797555E+10
(PID.TID 0000.0001) %MON RAW_min                      =   2.3992270990191E+09
(PID.TID 0000.0001) %MON RAW_mean                     =   6.2244185031957E+10
(PID.TID 0000.0001) %MON RAW_sd                       =   3.0074496923945E+10
(PID.TID 0000.0001) %MON RAS_max                      =   9.7763121221868E+10
(PID.TID 0000.0001) %MON RAS_min                      =   4.7970089933465E+09
(PID.TID 0000.0001) %MON RAS_mean                     =   6.3213143616158E+10
(PID.TID 0000.0001) %MON RAS_sd                       =   2.9304719741649E+10
(PID.TID 0000.0001) %MON RAZ_max                      =   9.7763121221868E+10
(PID.TID 0000.0001) %MON RAZ_min                      =   4.7970089933465E+09
(PID.TID 0000.0001) %MON RAZ_mean                     =   6.3213143616158E+10
(PID.TID 0000.0001) %MON RAZ_sd                       =   2.9304719741649E+10
(PID.TID 0000.0001) // =======================================================
(PID.TID 0000.0001) // Field Model R_low (ini_masks_etc) at iteration          1
(PID.TID 0000.0001) // CMIN =          1.000000000000000E+32
(PID.TID 0000.0001) // CMAX =         -1.000000000000000E+32
(PID.TID 0000.0001) // CINT =          0.000000000000000E+00
(PID.TID 0000.0001) // SYMBOLS (CMIN->CMAX): -abcdefghijklmnopqrstuvwxyz+
(PID.TID 0000.0001) //                  0.0: .
(PID.TID 0000.0001) // RANGE I (Lo:Hi:Step):(  -1: 130:   1)
(PID.TID 0000.0001) // RANGE J (Lo:Hi:Step):(  66:  -1:  -1)
(PID.TID 0000.0001) // RANGE K (Lo:Hi:Step):(   1:   1:   1)
(PID.TID 0000.0001) // =======================================================
(PID.TID 0000.0001) K =   1
(PID.TID 0000.0001) //                I=8       I=18      I=28      I=38      I=48      I=58      I=68      I=78      I=88      I=98      I=108     I=118     I=128
(PID.TID 0000.0001) // |--J--|*01234567|901234567|901234567|901234567|901234567|901234567|901234567|901234567|901234567|901234567|901234567|901234567|901234567|90
(PID.TID 0000.0001) //     66 ....................................................................................................................................
(PID.TID 0000.0001) //     65 ....................................................................................................................................
(PID.TID 0000.0001) //     64 ....................................................................................................................................
(PID.TID 0000.0001) //     63 ....................................................................................................................................
(PID.TID 0000.0001) //     62 ....................................................................................................................................
(PID.TID 0000.0001) //     61 ....................................................................................................................................
(PID.TID 0000.0001) //     60 ....................................................................................................................................
(PID.TID 0000.0001) //     59 ....................................................................................................................................
(PID.TID 0000.0001) //     58 ....................................................................................................................................
(PID.TID 0000.0001) //     57 ....................................................................................................................................
(PID.TID 0000.0001) //     56 ....................................................................................................................................
(PID.TID 0000.0001) //     55 ....................................................................................................................................
(PID.TID 0000.0001) //     54 ....................................................................................................................................
(PID.TID 0000.0001) //     53 ....................................................................................................................................
(PID.TID 0000.0001) //     52 ....................................................................................................................................
(PID.TID 0000.0001) //     51 ....................................................................................................................................
(PID.TID 0000.0001) //     50 ....................................................................................................................................
(PID.TID 0000.0001) //     49 ....................................................................................................................................
(PID.TID 0000.0001) //     48 ....................................................................................................................................
(PID.TID 0000.0001) //     47 ....................................................................................................................................
(PID.TID 0000.0001) //     46 ....................................................................................................................................
(PID.TID 0000.0001) //     45 ....................................................................................................................................
(PID.TID 0000.0001) //     44 ....................................................................................................................................
(PID.TID 0000.0001) //     43 ....................................................................................................................................
(PID.TID 0000.0001) //     42 ....................................................................................................................................
(PID.TID 0000.0001) //     41 ....................................................................................................................................
(PID.TID 0000.0001) //     40 ....................................................................................................................................
(PID.TID 0000.0001) //     39 ....................................................................................................................................
(PID.TID 0000.0001) //     38 ....................................................................................................................................
(PID.TID 0000.0001) //     37 ....................................................................................................................................
(PID.TID 0000.0001) //     36 ....................................................................................................................................
(PID.TID 0000.0001) //     35 ....................................................................................................................................
(PID.TID 0000.0001) //     34 ....................................................................................................................................
(PID.TID 0000.0001) //     33 ....................................................................................................................................
(PID.TID 0000.0001) //     32 ....................................................................................................................................
(PID.TID 0000.0001) //     31 ....................................................................................................................................
(PID.TID 0000.0001) //     30 ....................................................................................................................................
(PID.TID 0000.0001) //     29 ....................................................................................................................................
(PID.TID 0000.0001) //     28 ....................................................................................................................................
(PID.TID 0000.0001) //     27 ....................................................................................................................................
(PID.TID 0000.0001) //     26 ....................................................................................................................................
(PID.TID 0000.0001) //     25 ....................................................................................................................................
(PID.TID 0000.0001) //     24 ....................................................................................................................................
(PID.TID 0000.0001) //     23 ....................................................................................................................................
(PID.TID 0000.0001) //     22 ....................................................................................................................................
(PID.TID 0000.0001) //     21 ....................................................................................................................................
(PID.TID 0000.0001) //     20 ....................................................................................................................................
(PID.TID 0000.0001) //     19 ....................................................................................................................................
(PID.TID 0000.0001) //     18 ....................................................................................................................................
(PID.TID 0000.0001) //     17 ....................................................................................................................................
(PID.TID 0000.0001) //     16 ....................................................................................................................................
(PID.TID 0000.0001) //     15 ....................................................................................................................................
(PID.TID 0000.0001) //     14 ....................................................................................................................................
(PID.TID 0000.0001) //     13 ....................................................................................................................................
(PID.TID 0000.0001) //     12 ....................................................................................................................................
(PID.TID 0000.0001) //     11 ....................................................................................................................................
(PID.TID 0000.0001) //     10 ....................................................................................................................................
(PID.TID 0000.0001) //      9 ....................................................................................................................................
(PID.TID 0000.0001) //      8 ....................................................................................................................................
(PID.TID 0000.0001) //      7 ....................................................................................................................................
(PID.TID 0000.0001) //      6 ....................................................................................................................................
(PID.TID 0000.0001) //      5 ....................................................................................................................................
(PID.TID 0000.0001) //      4 ....................................................................................................................................
(PID.TID 0000.0001) //      3 ....................................................................................................................................
(PID.TID 0000.0001) //      2 ....................................................................................................................................
(PID.TID 0000.0001) //      1 ....................................................................................................................................
(PID.TID 0000.0001) //      0 ....................................................................................................................................
(PID.TID 0000.0001) //     -1 ....................................................................................................................................
(PID.TID 0000.0001) // =======================================================
(PID.TID 0000.0001) // END OF FIELD                                          =
(PID.TID 0000.0001) // =======================================================
(PID.TID 0000.0001) 
(PID.TID 0000.0001) // =======================================================
(PID.TID 0000.0001) // Field Model Ro_surf (ini_masks_etc) at iteration          1
(PID.TID 0000.0001) // CMIN =          1.000000000000000E+05
(PID.TID 0000.0001) // CMAX =          1.000000000000000E+05
(PID.TID 0000.0001) // CINT =          0.000000000000000E+00
(PID.TID 0000.0001) // SYMBOLS (CMIN->CMAX): -abcdefghijklmnopqrstuvwxyz+
(PID.TID 0000.0001) //                  0.0: .
(PID.TID 0000.0001) // RANGE I (Lo:Hi:Step):(  -1: 130:   1)
(PID.TID 0000.0001) // RANGE J (Lo:Hi:Step):(  66:  -1:  -1)
(PID.TID 0000.0001) // RANGE K (Lo:Hi:Step):(   1:   1:   1)
(PID.TID 0000.0001) // =======================================================
(PID.TID 0000.0001) K =   1
(PID.TID 0000.0001) //                I=8       I=18      I=28      I=38      I=48      I=58      I=68      I=78      I=88      I=98      I=108     I=118     I=128
(PID.TID 0000.0001) // |--J--|*01234567|901234567|901234567|901234567|901234567|901234567|901234567|901234567|901234567|901234567|901234567|901234567|901234567|90
(PID.TID 0000.0001) //     66 ....................................................................................................................................
(PID.TID 0000.0001) //     65 ....................................................................................................................................
(PID.TID 0000.0001) //     64 ------------------------------------------------------------------------------------------------------------------------------------
(PID.TID 0000.0001) //     63 ------------------------------------------------------------------------------------------------------------------------------------
(PID.TID 0000.0001) //     62 ------------------------------------------------------------------------------------------------------------------------------------
(PID.TID 0000.0001) //     61 ------------------------------------------------------------------------------------------------------------------------------------
(PID.TID 0000.0001) //     60 ------------------------------------------------------------------------------------------------------------------------------------
(PID.TID 0000.0001) //     59 ------------------------------------------------------------------------------------------------------------------------------------
(PID.TID 0000.0001) //     58 ------------------------------------------------------------------------------------------------------------------------------------
(PID.TID 0000.0001) //     57 ------------------------------------------------------------------------------------------------------------------------------------
(PID.TID 0000.0001) //     56 ------------------------------------------------------------------------------------------------------------------------------------
(PID.TID 0000.0001) //     55 ------------------------------------------------------------------------------------------------------------------------------------
(PID.TID 0000.0001) //     54 ------------------------------------------------------------------------------------------------------------------------------------
(PID.TID 0000.0001) //     53 ------------------------------------------------------------------------------------------------------------------------------------
(PID.TID 0000.0001) //     52 ------------------------------------------------------------------------------------------------------------------------------------
(PID.TID 0000.0001) //     51 ------------------------------------------------------------------------------------------------------------------------------------
(PID.TID 0000.0001) //     50 ------------------------------------------------------------------------------------------------------------------------------------
(PID.TID 0000.0001) //     49 ------------------------------------------------------------------------------------------------------------------------------------
(PID.TID 0000.0001) //     48 ------------------------------------------------------------------------------------------------------------------------------------
(PID.TID 0000.0001) //     47 ------------------------------------------------------------------------------------------------------------------------------------
(PID.TID 0000.0001) //     46 ------------------------------------------------------------------------------------------------------------------------------------
(PID.TID 0000.0001) //     45 ------------------------------------------------------------------------------------------------------------------------------------
(PID.TID 0000.0001) //     44 ------------------------------------------------------------------------------------------------------------------------------------
(PID.TID 0000.0001) //     43 ------------------------------------------------------------------------------------------------------------------------------------
(PID.TID 0000.0001) //     42 ------------------------------------------------------------------------------------------------------------------------------------
(PID.TID 0000.0001) //     41 ------------------------------------------------------------------------------------------------------------------------------------
(PID.TID 0000.0001) //     40 ------------------------------------------------------------------------------------------------------------------------------------
(PID.TID 0000.0001) //     39 ------------------------------------------------------------------------------------------------------------------------------------
(PID.TID 0000.0001) //     38 ------------------------------------------------------------------------------------------------------------------------------------
(PID.TID 0000.0001) //     37 ------------------------------------------------------------------------------------------------------------------------------------
(PID.TID 0000.0001) //     36 ------------------------------------------------------------------------------------------------------------------------------------
(PID.TID 0000.0001) //     35 ------------------------------------------------------------------------------------------------------------------------------------
(PID.TID 0000.0001) //     34 ------------------------------------------------------------------------------------------------------------------------------------
(PID.TID 0000.0001) //     33 ------------------------------------------------------------------------------------------------------------------------------------
(PID.TID 0000.0001) //     32 ------------------------------------------------------------------------------------------------------------------------------------
(PID.TID 0000.0001) //     31 ------------------------------------------------------------------------------------------------------------------------------------
(PID.TID 0000.0001) //     30 ------------------------------------------------------------------------------------------------------------------------------------
(PID.TID 0000.0001) //     29 ------------------------------------------------------------------------------------------------------------------------------------
(PID.TID 0000.0001) //     28 ------------------------------------------------------------------------------------------------------------------------------------
(PID.TID 0000.0001) //     27 ------------------------------------------------------------------------------------------------------------------------------------
(PID.TID 0000.0001) //     26 ------------------------------------------------------------------------------------------------------------------------------------
(PID.TID 0000.0001) //     25 ------------------------------------------------------------------------------------------------------------------------------------
(PID.TID 0000.0001) //     24 ------------------------------------------------------------------------------------------------------------------------------------
(PID.TID 0000.0001) //     23 ------------------------------------------------------------------------------------------------------------------------------------
(PID.TID 0000.0001) //     22 ------------------------------------------------------------------------------------------------------------------------------------
(PID.TID 0000.0001) //     21 ------------------------------------------------------------------------------------------------------------------------------------
(PID.TID 0000.0001) //     20 ------------------------------------------------------------------------------------------------------------------------------------
(PID.TID 0000.0001) //     19 ------------------------------------------------------------------------------------------------------------------------------------
(PID.TID 0000.0001) //     18 ------------------------------------------------------------------------------------------------------------------------------------
(PID.TID 0000.0001) //     17 ------------------------------------------------------------------------------------------------------------------------------------
(PID.TID 0000.0001) //     16 ------------------------------------------------------------------------------------------------------------------------------------
(PID.TID 0000.0001) //     15 ------------------------------------------------------------------------------------------------------------------------------------
(PID.TID 0000.0001) //     14 ------------------------------------------------------------------------------------------------------------------------------------
(PID.TID 0000.0001) //     13 ------------------------------------------------------------------------------------------------------------------------------------
(PID.TID 0000.0001) //     12 ------------------------------------------------------------------------------------------------------------------------------------
(PID.TID 0000.0001) //     11 ------------------------------------------------------------------------------------------------------------------------------------
(PID.TID 0000.0001) //     10 ------------------------------------------------------------------------------------------------------------------------------------
(PID.TID 0000.0001) //      9 ------------------------------------------------------------------------------------------------------------------------------------
(PID.TID 0000.0001) //      8 ------------------------------------------------------------------------------------------------------------------------------------
(PID.TID 0000.0001) //      7 ------------------------------------------------------------------------------------------------------------------------------------
(PID.TID 0000.0001) //      6 ------------------------------------------------------------------------------------------------------------------------------------
(PID.TID 0000.0001) //      5 ------------------------------------------------------------------------------------------------------------------------------------
(PID.TID 0000.0001) //      4 ------------------------------------------------------------------------------------------------------------------------------------
(PID.TID 0000.0001) //      3 ------------------------------------------------------------------------------------------------------------------------------------
(PID.TID 0000.0001) //      2 ------------------------------------------------------------------------------------------------------------------------------------
(PID.TID 0000.0001) //      1 ------------------------------------------------------------------------------------------------------------------------------------
(PID.TID 0000.0001) //      0 ....................................................................................................................................
(PID.TID 0000.0001) //     -1 ....................................................................................................................................
(PID.TID 0000.0001) // =======================================================
(PID.TID 0000.0001) // END OF FIELD                                          =
(PID.TID 0000.0001) // =======================================================
(PID.TID 0000.0001) 
(PID.TID 0000.0001) // =======================================================
(PID.TID 0000.0001) // Field hFacC at iteration          1
(PID.TID 0000.0001) // CMIN =          1.000000000000000E+00
(PID.TID 0000.0001) // CMAX =          1.000000000000000E+00
(PID.TID 0000.0001) // CINT =          0.000000000000000E+00
(PID.TID 0000.0001) // SYMBOLS (CMIN->CMAX): -abcdefghijklmnopqrstuvwxyz+
(PID.TID 0000.0001) //                  0.0: .
(PID.TID 0000.0001) // RANGE I (Lo:Hi:Step):(  -1: 130:   1)
(PID.TID 0000.0001) // RANGE J (Lo:Hi:Step):(  66:  -1:  -1)
(PID.TID 0000.0001) // RANGE K (Lo:Hi:Step):(   1:   1:   1)
(PID.TID 0000.0001) // =======================================================
(PID.TID 0000.0001) K =   1
(PID.TID 0000.0001) //                I=8       I=18      I=28      I=38      I=48      I=58      I=68      I=78      I=88      I=98      I=108     I=118     I=128
(PID.TID 0000.0001) // |--J--|*01234567|901234567|901234567|901234567|901234567|901234567|901234567|901234567|901234567|901234567|901234567|901234567|901234567|90
(PID.TID 0000.0001) //     66 ....................................................................................................................................
(PID.TID 0000.0001) //     65 ....................................................................................................................................
(PID.TID 0000.0001) //     64 ------------------------------------------------------------------------------------------------------------------------------------
(PID.TID 0000.0001) //     63 ------------------------------------------------------------------------------------------------------------------------------------
(PID.TID 0000.0001) //     62 ------------------------------------------------------------------------------------------------------------------------------------
(PID.TID 0000.0001) //     61 ------------------------------------------------------------------------------------------------------------------------------------
(PID.TID 0000.0001) //     60 ------------------------------------------------------------------------------------------------------------------------------------
(PID.TID 0000.0001) //     59 ------------------------------------------------------------------------------------------------------------------------------------
(PID.TID 0000.0001) //     58 ------------------------------------------------------------------------------------------------------------------------------------
(PID.TID 0000.0001) //     57 ------------------------------------------------------------------------------------------------------------------------------------
(PID.TID 0000.0001) //     56 ------------------------------------------------------------------------------------------------------------------------------------
(PID.TID 0000.0001) //     55 ------------------------------------------------------------------------------------------------------------------------------------
(PID.TID 0000.0001) //     54 ------------------------------------------------------------------------------------------------------------------------------------
(PID.TID 0000.0001) //     53 ------------------------------------------------------------------------------------------------------------------------------------
(PID.TID 0000.0001) //     52 ------------------------------------------------------------------------------------------------------------------------------------
(PID.TID 0000.0001) //     51 ------------------------------------------------------------------------------------------------------------------------------------
(PID.TID 0000.0001) //     50 ------------------------------------------------------------------------------------------------------------------------------------
(PID.TID 0000.0001) //     49 ------------------------------------------------------------------------------------------------------------------------------------
(PID.TID 0000.0001) //     48 ------------------------------------------------------------------------------------------------------------------------------------
(PID.TID 0000.0001) //     47 ------------------------------------------------------------------------------------------------------------------------------------
(PID.TID 0000.0001) //     46 ------------------------------------------------------------------------------------------------------------------------------------
(PID.TID 0000.0001) //     45 ------------------------------------------------------------------------------------------------------------------------------------
(PID.TID 0000.0001) //     44 ------------------------------------------------------------------------------------------------------------------------------------
(PID.TID 0000.0001) //     43 ------------------------------------------------------------------------------------------------------------------------------------
(PID.TID 0000.0001) //     42 ------------------------------------------------------------------------------------------------------------------------------------
(PID.TID 0000.0001) //     41 ------------------------------------------------------------------------------------------------------------------------------------
(PID.TID 0000.0001) //     40 ------------------------------------------------------------------------------------------------------------------------------------
(PID.TID 0000.0001) //     39 ------------------------------------------------------------------------------------------------------------------------------------
(PID.TID 0000.0001) //     38 ------------------------------------------------------------------------------------------------------------------------------------
(PID.TID 0000.0001) //     37 ------------------------------------------------------------------------------------------------------------------------------------
(PID.TID 0000.0001) //     36 ------------------------------------------------------------------------------------------------------------------------------------
(PID.TID 0000.0001) //     35 ------------------------------------------------------------------------------------------------------------------------------------
(PID.TID 0000.0001) //     34 ------------------------------------------------------------------------------------------------------------------------------------
(PID.TID 0000.0001) //     33 ------------------------------------------------------------------------------------------------------------------------------------
(PID.TID 0000.0001) //     32 ------------------------------------------------------------------------------------------------------------------------------------
(PID.TID 0000.0001) //     31 ------------------------------------------------------------------------------------------------------------------------------------
(PID.TID 0000.0001) //     30 ------------------------------------------------------------------------------------------------------------------------------------
(PID.TID 0000.0001) //     29 ------------------------------------------------------------------------------------------------------------------------------------
(PID.TID 0000.0001) //     28 ------------------------------------------------------------------------------------------------------------------------------------
(PID.TID 0000.0001) //     27 ------------------------------------------------------------------------------------------------------------------------------------
(PID.TID 0000.0001) //     26 ------------------------------------------------------------------------------------------------------------------------------------
(PID.TID 0000.0001) //     25 ------------------------------------------------------------------------------------------------------------------------------------
(PID.TID 0000.0001) //     24 ------------------------------------------------------------------------------------------------------------------------------------
(PID.TID 0000.0001) //     23 ------------------------------------------------------------------------------------------------------------------------------------
(PID.TID 0000.0001) //     22 ------------------------------------------------------------------------------------------------------------------------------------
(PID.TID 0000.0001) //     21 ------------------------------------------------------------------------------------------------------------------------------------
(PID.TID 0000.0001) //     20 ------------------------------------------------------------------------------------------------------------------------------------
(PID.TID 0000.0001) //     19 ------------------------------------------------------------------------------------------------------------------------------------
(PID.TID 0000.0001) //     18 ------------------------------------------------------------------------------------------------------------------------------------
(PID.TID 0000.0001) //     17 ------------------------------------------------------------------------------------------------------------------------------------
(PID.TID 0000.0001) //     16 ------------------------------------------------------------------------------------------------------------------------------------
(PID.TID 0000.0001) //     15 ------------------------------------------------------------------------------------------------------------------------------------
(PID.TID 0000.0001) //     14 ------------------------------------------------------------------------------------------------------------------------------------
(PID.TID 0000.0001) //     13 ------------------------------------------------------------------------------------------------------------------------------------
(PID.TID 0000.0001) //     12 ------------------------------------------------------------------------------------------------------------------------------------
(PID.TID 0000.0001) //     11 ------------------------------------------------------------------------------------------------------------------------------------
(PID.TID 0000.0001) //     10 ------------------------------------------------------------------------------------------------------------------------------------
(PID.TID 0000.0001) //      9 ------------------------------------------------------------------------------------------------------------------------------------
(PID.TID 0000.0001) //      8 ------------------------------------------------------------------------------------------------------------------------------------
(PID.TID 0000.0001) //      7 ------------------------------------------------------------------------------------------------------------------------------------
(PID.TID 0000.0001) //      6 ------------------------------------------------------------------------------------------------------------------------------------
(PID.TID 0000.0001) //      5 ------------------------------------------------------------------------------------------------------------------------------------
(PID.TID 0000.0001) //      4 ------------------------------------------------------------------------------------------------------------------------------------
(PID.TID 0000.0001) //      3 ------------------------------------------------------------------------------------------------------------------------------------
(PID.TID 0000.0001) //      2 ------------------------------------------------------------------------------------------------------------------------------------
(PID.TID 0000.0001) //      1 ------------------------------------------------------------------------------------------------------------------------------------
(PID.TID 0000.0001) //      0 ....................................................................................................................................
(PID.TID 0000.0001) //     -1 ....................................................................................................................................
(PID.TID 0000.0001) // =======================================================
(PID.TID 0000.0001) // END OF FIELD                                          =
(PID.TID 0000.0001) // =======================================================
(PID.TID 0000.0001) 
(PID.TID 0000.0001) // =======================================================
(PID.TID 0000.0001) // Field hFacW at iteration          1
(PID.TID 0000.0001) // CMIN =          1.000000000000000E+00
(PID.TID 0000.0001) // CMAX =          1.000000000000000E+00
(PID.TID 0000.0001) // CINT =          0.000000000000000E+00
(PID.TID 0000.0001) // SYMBOLS (CMIN->CMAX): -abcdefghijklmnopqrstuvwxyz+
(PID.TID 0000.0001) //                  0.0: .
(PID.TID 0000.0001) // RANGE I (Lo:Hi:Step):(  -1: 130:   1)
(PID.TID 0000.0001) // RANGE J (Lo:Hi:Step):(  66:  -1:  -1)
(PID.TID 0000.0001) // RANGE K (Lo:Hi:Step):(   1:   1:   1)
(PID.TID 0000.0001) // =======================================================
(PID.TID 0000.0001) K =   1
(PID.TID 0000.0001) //                I=8       I=18      I=28      I=38      I=48      I=58      I=68      I=78      I=88      I=98      I=108     I=118     I=128
(PID.TID 0000.0001) // |--J--|*01234567|901234567|901234567|901234567|901234567|901234567|901234567|901234567|901234567|901234567|901234567|901234567|901234567|90
(PID.TID 0000.0001) //     66 ------------------------------------------------------------------------------------------------------------------------------------
(PID.TID 0000.0001) //     65 ------------------------------------------------------------------------------------------------------------------------------------
(PID.TID 0000.0001) //     64 ------------------------------------------------------------------------------------------------------------------------------------
(PID.TID 0000.0001) //     63 ------------------------------------------------------------------------------------------------------------------------------------
(PID.TID 0000.0001) //     62 ------------------------------------------------------------------------------------------------------------------------------------
(PID.TID 0000.0001) //     61 ------------------------------------------------------------------------------------------------------------------------------------
(PID.TID 0000.0001) //     60 ------------------------------------------------------------------------------------------------------------------------------------
(PID.TID 0000.0001) //     59 ------------------------------------------------------------------------------------------------------------------------------------
(PID.TID 0000.0001) //     58 ------------------------------------------------------------------------------------------------------------------------------------
(PID.TID 0000.0001) //     57 ------------------------------------------------------------------------------------------------------------------------------------
(PID.TID 0000.0001) //     56 ------------------------------------------------------------------------------------------------------------------------------------
(PID.TID 0000.0001) //     55 ------------------------------------------------------------------------------------------------------------------------------------
(PID.TID 0000.0001) //     54 ------------------------------------------------------------------------------------------------------------------------------------
(PID.TID 0000.0001) //     53 ------------------------------------------------------------------------------------------------------------------------------------
(PID.TID 0000.0001) //     52 ------------------------------------------------------------------------------------------------------------------------------------
(PID.TID 0000.0001) //     51 ------------------------------------------------------------------------------------------------------------------------------------
(PID.TID 0000.0001) //     50 ------------------------------------------------------------------------------------------------------------------------------------
(PID.TID 0000.0001) //     49 ------------------------------------------------------------------------------------------------------------------------------------
(PID.TID 0000.0001) //     48 ------------------------------------------------------------------------------------------------------------------------------------
(PID.TID 0000.0001) //     47 ------------------------------------------------------------------------------------------------------------------------------------
(PID.TID 0000.0001) //     46 ------------------------------------------------------------------------------------------------------------------------------------
(PID.TID 0000.0001) //     45 ------------------------------------------------------------------------------------------------------------------------------------
(PID.TID 0000.0001) //     44 ------------------------------------------------------------------------------------------------------------------------------------
(PID.TID 0000.0001) //     43 ------------------------------------------------------------------------------------------------------------------------------------
(PID.TID 0000.0001) //     42 ------------------------------------------------------------------------------------------------------------------------------------
(PID.TID 0000.0001) //     41 ------------------------------------------------------------------------------------------------------------------------------------
(PID.TID 0000.0001) //     40 ------------------------------------------------------------------------------------------------------------------------------------
(PID.TID 0000.0001) //     39 ------------------------------------------------------------------------------------------------------------------------------------
(PID.TID 0000.0001) //     38 ------------------------------------------------------------------------------------------------------------------------------------
(PID.TID 0000.0001) //     37 ------------------------------------------------------------------------------------------------------------------------------------
(PID.TID 0000.0001) //     36 ------------------------------------------------------------------------------------------------------------------------------------
(PID.TID 0000.0001) //     35 ------------------------------------------------------------------------------------------------------------------------------------
(PID.TID 0000.0001) //     34 ------------------------------------------------------------------------------------------------------------------------------------
(PID.TID 0000.0001) //     33 ------------------------------------------------------------------------------------------------------------------------------------
(PID.TID 0000.0001) //     32 ------------------------------------------------------------------------------------------------------------------------------------
(PID.TID 0000.0001) //     31 ------------------------------------------------------------------------------------------------------------------------------------
(PID.TID 0000.0001) //     30 ------------------------------------------------------------------------------------------------------------------------------------
(PID.TID 0000.0001) //     29 ------------------------------------------------------------------------------------------------------------------------------------
(PID.TID 0000.0001) //     28 ------------------------------------------------------------------------------------------------------------------------------------
(PID.TID 0000.0001) //     27 ------------------------------------------------------------------------------------------------------------------------------------
(PID.TID 0000.0001) //     26 ------------------------------------------------------------------------------------------------------------------------------------
(PID.TID 0000.0001) //     25 ------------------------------------------------------------------------------------------------------------------------------------
(PID.TID 0000.0001) //     24 ------------------------------------------------------------------------------------------------------------------------------------
(PID.TID 0000.0001) //     23 ------------------------------------------------------------------------------------------------------------------------------------
(PID.TID 0000.0001) //     22 ------------------------------------------------------------------------------------------------------------------------------------
(PID.TID 0000.0001) //     21 ------------------------------------------------------------------------------------------------------------------------------------
(PID.TID 0000.0001) //     20 ------------------------------------------------------------------------------------------------------------------------------------
(PID.TID 0000.0001) //     19 ------------------------------------------------------------------------------------------------------------------------------------
(PID.TID 0000.0001) //     18 ------------------------------------------------------------------------------------------------------------------------------------
(PID.TID 0000.0001) //     17 ------------------------------------------------------------------------------------------------------------------------------------
(PID.TID 0000.0001) //     16 ------------------------------------------------------------------------------------------------------------------------------------
(PID.TID 0000.0001) //     15 ------------------------------------------------------------------------------------------------------------------------------------
(PID.TID 0000.0001) //     14 ------------------------------------------------------------------------------------------------------------------------------------
(PID.TID 0000.0001) //     13 ------------------------------------------------------------------------------------------------------------------------------------
(PID.TID 0000.0001) //     12 ------------------------------------------------------------------------------------------------------------------------------------
(PID.TID 0000.0001) //     11 ------------------------------------------------------------------------------------------------------------------------------------
(PID.TID 0000.0001) //     10 ------------------------------------------------------------------------------------------------------------------------------------
(PID.TID 0000.0001) //      9 ------------------------------------------------------------------------------------------------------------------------------------
(PID.TID 0000.0001) //      8 ------------------------------------------------------------------------------------------------------------------------------------
(PID.TID 0000.0001) //      7 ------------------------------------------------------------------------------------------------------------------------------------
(PID.TID 0000.0001) //      6 ------------------------------------------------------------------------------------------------------------------------------------
(PID.TID 0000.0001) //      5 ------------------------------------------------------------------------------------------------------------------------------------
(PID.TID 0000.0001) //      4 ------------------------------------------------------------------------------------------------------------------------------------
(PID.TID 0000.0001) //      3 ------------------------------------------------------------------------------------------------------------------------------------
(PID.TID 0000.0001) //      2 ------------------------------------------------------------------------------------------------------------------------------------
(PID.TID 0000.0001) //      1 ------------------------------------------------------------------------------------------------------------------------------------
(PID.TID 0000.0001) //      0 ------------------------------------------------------------------------------------------------------------------------------------
(PID.TID 0000.0001) //     -1 ------------------------------------------------------------------------------------------------------------------------------------
(PID.TID 0000.0001) // =======================================================
(PID.TID 0000.0001) // END OF FIELD                                          =
(PID.TID 0000.0001) // =======================================================
(PID.TID 0000.0001) 
(PID.TID 0000.0001) // =======================================================
(PID.TID 0000.0001) // Field hFacS at iteration          1
(PID.TID 0000.0001) // CMIN =          1.000000000000000E+00
(PID.TID 0000.0001) // CMAX =          1.000000000000000E+00
(PID.TID 0000.0001) // CINT =          0.000000000000000E+00
(PID.TID 0000.0001) // SYMBOLS (CMIN->CMAX): -abcdefghijklmnopqrstuvwxyz+
(PID.TID 0000.0001) //                  0.0: .
(PID.TID 0000.0001) // RANGE I (Lo:Hi:Step):(  -1: 130:   1)
(PID.TID 0000.0001) // RANGE J (Lo:Hi:Step):(  66:  -1:  -1)
(PID.TID 0000.0001) // RANGE K (Lo:Hi:Step):(   1:   1:   1)
(PID.TID 0000.0001) // =======================================================
(PID.TID 0000.0001) K =   1
(PID.TID 0000.0001) //                I=8       I=18      I=28      I=38      I=48      I=58      I=68      I=78      I=88      I=98      I=108     I=118     I=128
(PID.TID 0000.0001) // |--J--|*01234567|901234567|901234567|901234567|901234567|901234567|901234567|901234567|901234567|901234567|901234567|901234567|901234567|90
(PID.TID 0000.0001) //     66 ....................................................................................................................................
(PID.TID 0000.0001) //     65 ....................................................................................................................................
(PID.TID 0000.0001) //     64 ------------------------------------------------------------------------------------------------------------------------------------
(PID.TID 0000.0001) //     63 ------------------------------------------------------------------------------------------------------------------------------------
(PID.TID 0000.0001) //     62 ------------------------------------------------------------------------------------------------------------------------------------
(PID.TID 0000.0001) //     61 ------------------------------------------------------------------------------------------------------------------------------------
(PID.TID 0000.0001) //     60 ------------------------------------------------------------------------------------------------------------------------------------
(PID.TID 0000.0001) //     59 ------------------------------------------------------------------------------------------------------------------------------------
(PID.TID 0000.0001) //     58 ------------------------------------------------------------------------------------------------------------------------------------
(PID.TID 0000.0001) //     57 ------------------------------------------------------------------------------------------------------------------------------------
(PID.TID 0000.0001) //     56 ------------------------------------------------------------------------------------------------------------------------------------
(PID.TID 0000.0001) //     55 ------------------------------------------------------------------------------------------------------------------------------------
(PID.TID 0000.0001) //     54 ------------------------------------------------------------------------------------------------------------------------------------
(PID.TID 0000.0001) //     53 ------------------------------------------------------------------------------------------------------------------------------------
(PID.TID 0000.0001) //     52 ------------------------------------------------------------------------------------------------------------------------------------
(PID.TID 0000.0001) //     51 ------------------------------------------------------------------------------------------------------------------------------------
(PID.TID 0000.0001) //     50 ------------------------------------------------------------------------------------------------------------------------------------
(PID.TID 0000.0001) //     49 ------------------------------------------------------------------------------------------------------------------------------------
(PID.TID 0000.0001) //     48 ------------------------------------------------------------------------------------------------------------------------------------
(PID.TID 0000.0001) //     47 ------------------------------------------------------------------------------------------------------------------------------------
(PID.TID 0000.0001) //     46 ------------------------------------------------------------------------------------------------------------------------------------
(PID.TID 0000.0001) //     45 ------------------------------------------------------------------------------------------------------------------------------------
(PID.TID 0000.0001) //     44 ------------------------------------------------------------------------------------------------------------------------------------
(PID.TID 0000.0001) //     43 ------------------------------------------------------------------------------------------------------------------------------------
(PID.TID 0000.0001) //     42 ------------------------------------------------------------------------------------------------------------------------------------
(PID.TID 0000.0001) //     41 ------------------------------------------------------------------------------------------------------------------------------------
(PID.TID 0000.0001) //     40 ------------------------------------------------------------------------------------------------------------------------------------
(PID.TID 0000.0001) //     39 ------------------------------------------------------------------------------------------------------------------------------------
(PID.TID 0000.0001) //     38 ------------------------------------------------------------------------------------------------------------------------------------
(PID.TID 0000.0001) //     37 ------------------------------------------------------------------------------------------------------------------------------------
(PID.TID 0000.0001) //     36 ------------------------------------------------------------------------------------------------------------------------------------
(PID.TID 0000.0001) //     35 ------------------------------------------------------------------------------------------------------------------------------------
(PID.TID 0000.0001) //     34 ------------------------------------------------------------------------------------------------------------------------------------
(PID.TID 0000.0001) //     33 ------------------------------------------------------------------------------------------------------------------------------------
(PID.TID 0000.0001) //     32 ------------------------------------------------------------------------------------------------------------------------------------
(PID.TID 0000.0001) //     31 ------------------------------------------------------------------------------------------------------------------------------------
(PID.TID 0000.0001) //     30 ------------------------------------------------------------------------------------------------------------------------------------
(PID.TID 0000.0001) //     29 ------------------------------------------------------------------------------------------------------------------------------------
(PID.TID 0000.0001) //     28 ------------------------------------------------------------------------------------------------------------------------------------
(PID.TID 0000.0001) //     27 ------------------------------------------------------------------------------------------------------------------------------------
(PID.TID 0000.0001) //     26 ------------------------------------------------------------------------------------------------------------------------------------
(PID.TID 0000.0001) //     25 ------------------------------------------------------------------------------------------------------------------------------------
(PID.TID 0000.0001) //     24 ------------------------------------------------------------------------------------------------------------------------------------
(PID.TID 0000.0001) //     23 ------------------------------------------------------------------------------------------------------------------------------------
(PID.TID 0000.0001) //     22 ------------------------------------------------------------------------------------------------------------------------------------
(PID.TID 0000.0001) //     21 ------------------------------------------------------------------------------------------------------------------------------------
(PID.TID 0000.0001) //     20 ------------------------------------------------------------------------------------------------------------------------------------
(PID.TID 0000.0001) //     19 ------------------------------------------------------------------------------------------------------------------------------------
(PID.TID 0000.0001) //     18 ------------------------------------------------------------------------------------------------------------------------------------
(PID.TID 0000.0001) //     17 ------------------------------------------------------------------------------------------------------------------------------------
(PID.TID 0000.0001) //     16 ------------------------------------------------------------------------------------------------------------------------------------
(PID.TID 0000.0001) //     15 ------------------------------------------------------------------------------------------------------------------------------------
(PID.TID 0000.0001) //     14 ------------------------------------------------------------------------------------------------------------------------------------
(PID.TID 0000.0001) //     13 ------------------------------------------------------------------------------------------------------------------------------------
(PID.TID 0000.0001) //     12 ------------------------------------------------------------------------------------------------------------------------------------
(PID.TID 0000.0001) //     11 ------------------------------------------------------------------------------------------------------------------------------------
(PID.TID 0000.0001) //     10 ------------------------------------------------------------------------------------------------------------------------------------
(PID.TID 0000.0001) //      9 ------------------------------------------------------------------------------------------------------------------------------------
(PID.TID 0000.0001) //      8 ------------------------------------------------------------------------------------------------------------------------------------
(PID.TID 0000.0001) //      7 ------------------------------------------------------------------------------------------------------------------------------------
(PID.TID 0000.0001) //      6 ------------------------------------------------------------------------------------------------------------------------------------
(PID.TID 0000.0001) //      5 ------------------------------------------------------------------------------------------------------------------------------------
(PID.TID 0000.0001) //      4 ------------------------------------------------------------------------------------------------------------------------------------
(PID.TID 0000.0001) //      3 ------------------------------------------------------------------------------------------------------------------------------------
(PID.TID 0000.0001) //      2 ------------------------------------------------------------------------------------------------------------------------------------
(PID.TID 0000.0001) //      1 ....................................................................................................................................
(PID.TID 0000.0001) //      0 ....................................................................................................................................
(PID.TID 0000.0001) //     -1 ....................................................................................................................................
(PID.TID 0000.0001) // =======================================================
(PID.TID 0000.0001) // END OF FIELD                                          =
(PID.TID 0000.0001) // =======================================================
(PID.TID 0000.0001) 
(PID.TID 0000.0001)  PACKAGES_BOOT: opening data.pkg
(PID.TID 0000.0001)  OPEN_COPY_DATA_FILE: opening file data.pkg
(PID.TID 0000.0001) // =======================================================
(PID.TID 0000.0001) // Parameter file "data.pkg"
(PID.TID 0000.0001) // =======================================================
(PID.TID 0000.0001) ># Packages
(PID.TID 0000.0001) > &PACKAGES
(PID.TID 0000.0001) > &
(PID.TID 0000.0001) 
(PID.TID 0000.0001)  PACKAGES_BOOT: finished reading data.pkg
(PID.TID 0000.0001) 
(PID.TID 0000.0001) // ===================================
(PID.TID 0000.0001) // GAD parameters :
(PID.TID 0000.0001) // ===================================
(PID.TID 0000.0001) tempAdvScheme =   /* Temp. advection scheme selector */
(PID.TID 0000.0001)                       2
(PID.TID 0000.0001)     ;
(PID.TID 0000.0001) tempMultiDimAdvec =   /* use Muti-Dim Advec method for Temp */
(PID.TID 0000.0001)                   F
(PID.TID 0000.0001)     ;
(PID.TID 0000.0001) tempAdamsBashforth =   /* use Adams-Bashforth time-stepping for Temp */
(PID.TID 0000.0001)                   T
(PID.TID 0000.0001)     ;
(PID.TID 0000.0001) saltAdvScheme =   /* Salt. advection scheme selector */
(PID.TID 0000.0001)                       2
(PID.TID 0000.0001)     ;
(PID.TID 0000.0001) saltMultiDimAdvec =   /* use Muti-Dim Advec method for Salt */
(PID.TID 0000.0001)                   F
(PID.TID 0000.0001)     ;
(PID.TID 0000.0001) saltAdamsBashforth =   /* use Adams-Bashforth time-stepping for Salt */
(PID.TID 0000.0001)                   T
(PID.TID 0000.0001)     ;
(PID.TID 0000.0001) // ===================================
(PID.TID 0000.0001) %MON fCori_max                    =   1.4540029928789E-04
(PID.TID 0000.0001) %MON fCori_min                    =  -1.4540029928789E-04
(PID.TID 0000.0001) %MON fCori_mean                   =  -2.2565487110447E-21
(PID.TID 0000.0001) %MON fCori_sd                     =   1.0284451245737E-04
(PID.TID 0000.0001) %MON fCoriG_max                   =   1.4526891053949E-04
(PID.TID 0000.0001) %MON fCoriG_min                   =  -1.4544410433286E-04
(PID.TID 0000.0001) %MON fCoriG_mean                  =  -2.3086365767121E-06
(PID.TID 0000.0001) %MON fCoriG_sd                    =   1.0363181330709E-04
(PID.TID 0000.0001) %MON fCoriCos_max                 =   1.4540029928789E-04
(PID.TID 0000.0001) %MON fCoriCos_min                 =   3.5693770017430E-06
(PID.TID 0000.0001) %MON fCoriCos_mean                =   9.2601889431868E-05
(PID.TID 0000.0001) %MON fCoriCos_sd                  =   4.4742416298653E-05
(PID.TID 0000.0001) // CG2D normalisation factor =          0.2454122852291226263129944E-06
(PID.TID 0000.0001) 
(PID.TID 0000.0001) CONFIG_CHECK: OK
(PID.TID 0000.0001) // =======================================================
(PID.TID 0000.0001) // Model configuration
(PID.TID 0000.0001) // =======================================================
(PID.TID 0000.0001) //
(PID.TID 0000.0001) // "Physical" paramters ( PARM01 in namelist )
(PID.TID 0000.0001) //
(PID.TID 0000.0001) buoyancyRelation = ATMOSPHERIC
(PID.TID 0000.0001) tRef =   /* Reference temperature profile ( oC or oK ) */
(PID.TID 0000.0001)                 3.000000000000000E+02       /* K =  1 */
(PID.TID 0000.0001)     ;
(PID.TID 0000.0001) sRef =   /* Reference salinity profile ( ppt ) */
(PID.TID 0000.0001)                 0.000000000000000E+00       /* K =  1 */
(PID.TID 0000.0001)     ;
(PID.TID 0000.0001) viscAh =   /* Lateral eddy viscosity ( m^2/s ) */
(PID.TID 0000.0001)                 0.000000000000000E+00
(PID.TID 0000.0001)     ;
(PID.TID 0000.0001) viscAh =   /* Lateral biharmonic viscosity ( m^4/s ) */
(PID.TID 0000.0001)                 0.000000000000000E+00
(PID.TID 0000.0001)     ;
(PID.TID 0000.0001) no_slip_sides =  /* Viscous BCs: No-slip sides */
(PID.TID 0000.0001)                   F
(PID.TID 0000.0001)     ;
(PID.TID 0000.0001) viscAr =   /* Vertical eddy viscosity ( units of r^2/s ) */
(PID.TID 0000.0001)                 0.000000000000000E+00
(PID.TID 0000.0001)     ;
(PID.TID 0000.0001) diffKhT =   /* Laplacian diffusion of heat laterally ( m^2/s ) */
(PID.TID 0000.0001)                 0.000000000000000E+00
(PID.TID 0000.0001)     ;
(PID.TID 0000.0001) diffK4T =   /* Bihaarmonic diffusion of heat laterally ( m^4/s ) */
(PID.TID 0000.0001)                 0.000000000000000E+00
(PID.TID 0000.0001)     ;
(PID.TID 0000.0001) diffKzT =   /* Laplacian diffusion of heat vertically ( m^2/s ) */
(PID.TID 0000.0001)                 1.234567000000000E+05
(PID.TID 0000.0001)     ;
(PID.TID 0000.0001) diffKrT =   /* Laplacian diffusion of heat vertically ( m^2/s ) */
(PID.TID 0000.0001)                 0.000000000000000E+00
(PID.TID 0000.0001)     ;
(PID.TID 0000.0001) diffKhS =   /* Laplacian diffusion of salt laterally ( m^2/s ) */
(PID.TID 0000.0001)                 0.000000000000000E+00
(PID.TID 0000.0001)     ;
(PID.TID 0000.0001) diffK4S =   /* Bihaarmonic diffusion of salt laterally ( m^4/s ) */
(PID.TID 0000.0001)                 0.000000000000000E+00
(PID.TID 0000.0001)     ;
(PID.TID 0000.0001) diffKzS =   /* Laplacian diffusion of salt vertically ( m^2/s ) */
(PID.TID 0000.0001)                 1.234567000000000E+05
(PID.TID 0000.0001)     ;
(PID.TID 0000.0001) diffKrS =   /* Laplacian diffusion of salt vertically ( m^2/s ) */
(PID.TID 0000.0001)                 0.000000000000000E+00
(PID.TID 0000.0001)     ;
(PID.TID 0000.0001)  Equation of State : eosType = IDEALG
(PID.TID 0000.0001) tAlpha =   /* Linear EOS thermal expansion coefficient ( 1/degree ) */
(PID.TID 0000.0001)                 1.234567000000000E+05
(PID.TID 0000.0001)     ;
(PID.TID 0000.0001) sBeta =   /* Linear EOS haline contraction coefficient ( 1/ppt ) */
(PID.TID 0000.0001)                 1.234567000000000E+05
(PID.TID 0000.0001)     ;
(PID.TID 0000.0001) atm_Rd =  /* gas constant for dry air ( J/kg/K ) */
(PID.TID 0000.0001)                 2.868571428571428E+02
(PID.TID 0000.0001)     ;
(PID.TID 0000.0001) atm_Cp =  /* specific heat (Cp) of dry air ( J/kg/K ) */
(PID.TID 0000.0001)                 1.004000000000000E+03
(PID.TID 0000.0001)     ;
(PID.TID 0000.0001) atm_kappa =  /* kappa (=Rd/Cp ) of dry air */
(PID.TID 0000.0001)                 2.857142857142857E-01
(PID.TID 0000.0001)     ;
(PID.TID 0000.0001) atm_Rq = /* water vap. specific vol. anomaly relative to dry air */
(PID.TID 0000.0001)                 0.000000000000000E+00
(PID.TID 0000.0001)     ;
(PID.TID 0000.0001) atm_Po =  /* standard reference pressure ( Pa ) */
(PID.TID 0000.0001)                 1.000000000000000E+05
(PID.TID 0000.0001)     ;
(PID.TID 0000.0001) integr_GeoPot =  /* select how the geopotential is integrated */
(PID.TID 0000.0001)                       2
(PID.TID 0000.0001)     ;
(PID.TID 0000.0001) selectFindRoSurf=  /* select how Surf.Ref. pressure is defined */
(PID.TID 0000.0001)                       0
(PID.TID 0000.0001)     ;
(PID.TID 0000.0001) rhonil =   /* Reference density ( kg/m^3 ) */
(PID.TID 0000.0001)                 1.000000000000000E+00
(PID.TID 0000.0001)     ;
(PID.TID 0000.0001) rhoConst =   /* Reference density ( kg/m^3 ) */
(PID.TID 0000.0001)                 1.000000000000000E+00
(PID.TID 0000.0001)     ;
(PID.TID 0000.0001) rhoConstFresh =   /* Reference density ( kg/m^3 ) */
(PID.TID 0000.0001)                 9.998000000000000E+02
(PID.TID 0000.0001)     ;
(PID.TID 0000.0001) gravity =   /* Gravitational acceleration ( m/s^2 ) */
(PID.TID 0000.0001)                 9.810000000000000E+00
(PID.TID 0000.0001)     ;
(PID.TID 0000.0001) gBaro =   /* Barotropic gravity ( m/s^2 ) */
(PID.TID 0000.0001)                 9.810000000000000E+00
(PID.TID 0000.0001)     ;
(PID.TID 0000.0001) rotationPeriod =   /* Rotation Period ( s ) */
(PID.TID 0000.0001)                 8.640000000000000E+04
(PID.TID 0000.0001)     ;
(PID.TID 0000.0001) omega =   /* Angular velocity ( rad/s ) */
(PID.TID 0000.0001)                 7.272205216643040E-05
(PID.TID 0000.0001)     ;
(PID.TID 0000.0001) f0 =   /* Reference coriolis parameter ( 1/s ) */
(PID.TID 0000.0001)                 1.000000000000000E-04
(PID.TID 0000.0001)     ;
(PID.TID 0000.0001) beta =   /* Beta ( 1/(m.s) ) */
(PID.TID 0000.0001)                 9.999999999999999E-12
(PID.TID 0000.0001)     ;
(PID.TID 0000.0001) freeSurfFac =   /* Implicit free surface factor */
(PID.TID 0000.0001)                 1.000000000000000E+00
(PID.TID 0000.0001)     ;
(PID.TID 0000.0001) implicitFreeSurface =   /* Implicit free surface on/off flag */
(PID.TID 0000.0001)                   T
(PID.TID 0000.0001)     ;
(PID.TID 0000.0001) rigidLid =   /* Rigid lid on/off flag */
(PID.TID 0000.0001)                   F
(PID.TID 0000.0001)     ;
(PID.TID 0000.0001) implicSurfPress =   /* Surface Pressure implicit factor (0-1)*/
(PID.TID 0000.0001)                 1.000000000000000E+00
(PID.TID 0000.0001)     ;
(PID.TID 0000.0001) implicDiv2Dflow =   /* Barot. Flow Div. implicit factor (0-1)*/
(PID.TID 0000.0001)                 1.000000000000000E+00
(PID.TID 0000.0001)     ;
(PID.TID 0000.0001) exactConserv =   /* Exact Volume Conservation on/off flag*/
(PID.TID 0000.0001)                   F
(PID.TID 0000.0001)     ;
(PID.TID 0000.0001) uniformLin_PhiSurf =   /* use uniform Bo_surf on/off flag*/
(PID.TID 0000.0001)                   T
(PID.TID 0000.0001)     ;
(PID.TID 0000.0001) nonlinFreeSurf =   /* Non-linear Free Surf. options (-1,0,1,2,3)*/
(PID.TID 0000.0001)                       0
(PID.TID 0000.0001)     ;
(PID.TID 0000.0001)      -1,0= Off ; 1,2,3= On, 2=+rescale gU,gV, 3=+update cg2d solv.
(PID.TID 0000.0001) hFacInf =   /* lower threshold for hFac (nonlinFreeSurf only)*/
(PID.TID 0000.0001)                 2.000000000000000E-01
(PID.TID 0000.0001)     ;
(PID.TID 0000.0001) hFacSup =   /* upper threshold for hFac (nonlinFreeSurf only)*/
(PID.TID 0000.0001)                 2.000000000000000E+00
(PID.TID 0000.0001)     ;
(PID.TID 0000.0001) select_rStar =   /* r* Coordinate options (not yet implemented)*/
(PID.TID 0000.0001)                       0
(PID.TID 0000.0001)     ;
(PID.TID 0000.0001) useRealFreshWaterFlux =   /* Real Fresh Water Flux on/off flag*/
(PID.TID 0000.0001)                   F
(PID.TID 0000.0001)     ;
(PID.TID 0000.0001) convertFW2Salt = /* convert F.W. Flux to Salt Flux (-1=use local S)(ppt)*/
(PID.TID 0000.0001)                 3.500000000000000E+01
(PID.TID 0000.0001)     ;
(PID.TID 0000.0001) multiDimAdvection =   /* enable/disable Multi-Dim Advection */
(PID.TID 0000.0001)                   T
(PID.TID 0000.0001)     ;
(PID.TID 0000.0001) staggerTimeStep =   /* Stagger time stepping on/off flag */
(PID.TID 0000.0001)                   F
(PID.TID 0000.0001)     ;
(PID.TID 0000.0001) momStepping =  /* Momentum equation on/off flag */
(PID.TID 0000.0001)                   T
(PID.TID 0000.0001)     ;
(PID.TID 0000.0001) momAdvection =  /* Momentum advection on/off flag */
(PID.TID 0000.0001)                   F
(PID.TID 0000.0001)     ;
(PID.TID 0000.0001) momViscosity =  /* Momentum viscosity on/off flag */
(PID.TID 0000.0001)                   T
(PID.TID 0000.0001)     ;
(PID.TID 0000.0001) useCoriolis =  /* Coriolis on/off flag */
(PID.TID 0000.0001)                   F
(PID.TID 0000.0001)     ;
(PID.TID 0000.0001) momForcing =  /* Momentum forcing on/off flag */
(PID.TID 0000.0001)                   T
(PID.TID 0000.0001)     ;
(PID.TID 0000.0001) momPressureForcing =  /* Momentum pressure term on/off flag */
(PID.TID 0000.0001)                   T
(PID.TID 0000.0001)     ;
(PID.TID 0000.0001) tempStepping =  /* Temperature equation on/off flag */
(PID.TID 0000.0001)                   F
(PID.TID 0000.0001)     ;
(PID.TID 0000.0001) tempAdvection=  /* Temperature advection on/off flag */
(PID.TID 0000.0001)                   F
(PID.TID 0000.0001)     ;
(PID.TID 0000.0001) tempForcing  =  /* Temperature forcing on/off flag */
(PID.TID 0000.0001)                   F
(PID.TID 0000.0001)     ;
(PID.TID 0000.0001) saltStepping =  /* Salinity equation on/off flag */
(PID.TID 0000.0001)                   F
(PID.TID 0000.0001)     ;
(PID.TID 0000.0001) saltAdvection=  /* Salinity advection on/off flag */
(PID.TID 0000.0001)                   F
(PID.TID 0000.0001)     ;
(PID.TID 0000.0001) saltForcing  =  /* Salinity forcing on/off flag */
(PID.TID 0000.0001)                   F
(PID.TID 0000.0001)     ;
(PID.TID 0000.0001) nonHydrostatic =  /* Non-Hydrostatic on/off flag */
(PID.TID 0000.0001)                   F
(PID.TID 0000.0001)     ;
(PID.TID 0000.0001) useCDscheme =  /* CD scheme on/off flag */
(PID.TID 0000.0001)                   F
(PID.TID 0000.0001)     ;
(PID.TID 0000.0001) useJamartWetPoints= /* Coriolis WetPoints method flag */
(PID.TID 0000.0001)                   F
(PID.TID 0000.0001)     ;
(PID.TID 0000.0001) //
(PID.TID 0000.0001) // Elliptic solver(s) paramters ( PARM02 in namelist )
(PID.TID 0000.0001) //
(PID.TID 0000.0001) cg2dMaxIters =   /* Upper limit on 2d con. grad iterations  */
(PID.TID 0000.0001)                     600
(PID.TID 0000.0001)     ;
(PID.TID 0000.0001) cg2dChkResFreq =   /* 2d con. grad convergence test frequency */
(PID.TID 0000.0001)                       1
(PID.TID 0000.0001)     ;
(PID.TID 0000.0001) cg2dTargetResidual =   /* 2d con. grad target residual  */
(PID.TID 0000.0001)                 1.000000000000000E-12
(PID.TID 0000.0001)     ;
(PID.TID 0000.0001) //
(PID.TID 0000.0001) // Time stepping paramters ( PARM03 in namelist )
(PID.TID 0000.0001) //
(PID.TID 0000.0001) nIter0 =   /* Base timestep number  */
(PID.TID 0000.0001)                       0
(PID.TID 0000.0001)     ;
(PID.TID 0000.0001) nTimeSteps =   /* Number of timesteps */
(PID.TID 0000.0001)                      24
(PID.TID 0000.0001)     ;
(PID.TID 0000.0001) deltatTmom =   /* Momentum equation timestep ( s ) */
(PID.TID 0000.0001)                 4.500000000000000E+02
(PID.TID 0000.0001)     ;
(PID.TID 0000.0001) deltaTfreesurf =   /* FreeSurface equation timestep ( s ) */
(PID.TID 0000.0001)                 4.500000000000000E+02
(PID.TID 0000.0001)     ;
(PID.TID 0000.0001) deltatTtracer =   /* Tracer equation timestep ( s ) */
(PID.TID 0000.0001)                 4.500000000000000E+02
(PID.TID 0000.0001)     ;
(PID.TID 0000.0001) deltatTClock  =   /* Model clock timestep ( s ) */
(PID.TID 0000.0001)                 4.500000000000000E+02
(PID.TID 0000.0001)     ;
(PID.TID 0000.0001) cAdjFreq =   /* Convective adjustment interval ( s ) */
(PID.TID 0000.0001)                 0.000000000000000E+00
(PID.TID 0000.0001)     ;
(PID.TID 0000.0001) forcing_In_AB =   /* put T,S Forcing in Adams-Bash. stepping */
(PID.TID 0000.0001)                   T
(PID.TID 0000.0001)     ;
(PID.TID 0000.0001) abeps =   /* Adams-Bashforth stabilizing weight */
(PID.TID 0000.0001)                 1.000000000000000E-01
(PID.TID 0000.0001)     ;
(PID.TID 0000.0001) startTime =   /* Run start time ( s ). */
(PID.TID 0000.0001)                 0.000000000000000E+00
(PID.TID 0000.0001)     ;
(PID.TID 0000.0001) endTime =   /* Integration ending time ( s ). */
(PID.TID 0000.0001)                 1.080000000000000E+04
(PID.TID 0000.0001)     ;
(PID.TID 0000.0001) pChkPtFreq =   /* Permanent restart/checkpoint file interval ( s ). */
(PID.TID 0000.0001)                 0.000000000000000E+00
(PID.TID 0000.0001)     ;
(PID.TID 0000.0001) chkPtFreq =   /* Rolling restart/checkpoint file interval ( s ). */
(PID.TID 0000.0001)                 0.000000000000000E+00
(PID.TID 0000.0001)     ;
(PID.TID 0000.0001) dumpFreq =   /* Model state write out interval ( s ). */
(PID.TID 0000.0001)                 3.600000000000000E+03
(PID.TID 0000.0001)     ;
(PID.TID 0000.0001) externForcingPeriod =   /* forcing period (s) */
(PID.TID 0000.0001)                 0.000000000000000E+00
(PID.TID 0000.0001)     ;
(PID.TID 0000.0001) externForcingCycle =   /* period of the cyle (s). */
(PID.TID 0000.0001)                 0.000000000000000E+00
(PID.TID 0000.0001)     ;
(PID.TID 0000.0001) tauThetaClimRelax =   /* relaxation time scale (s) */
(PID.TID 0000.0001)                 0.000000000000000E+00
(PID.TID 0000.0001)     ;
(PID.TID 0000.0001) tauSaltClimRelax =   /* relaxation time scale (s) */
(PID.TID 0000.0001)                 0.000000000000000E+00
(PID.TID 0000.0001)     ;
(PID.TID 0000.0001) latBandClimRelax =   /* max. Lat. where relaxation */
(PID.TID 0000.0001)                 1.800000000000000E+02
(PID.TID 0000.0001)     ;
(PID.TID 0000.0001) //
(PID.TID 0000.0001) // Gridding paramters ( PARM04 in namelist )
(PID.TID 0000.0001) //
(PID.TID 0000.0001) usingCartesianGrid =   /* Cartesian coordinates flag ( True / False ) */
(PID.TID 0000.0001)                   F
(PID.TID 0000.0001)     ;
(PID.TID 0000.0001) usingSphericalPolarGrid =   /* Spherical coordinates flag ( True / False ) */
(PID.TID 0000.0001)                   T
(PID.TID 0000.0001)     ;
(PID.TID 0000.0001) groundAtK1 =   /* Lower Boundary (ground) at the surface(k=1) ( T / F ) */
(PID.TID 0000.0001)                   T
(PID.TID 0000.0001)     ;
(PID.TID 0000.0001) Ro_SeaLevel =   /* r(1) ( units of r ) */
(PID.TID 0000.0001)                 1.000000000000000E+05
(PID.TID 0000.0001)     ;
(PID.TID 0000.0001) rkFac =   /* minus Vertical index orientation  */
(PID.TID 0000.0001)                 1.000000000000000E+00
(PID.TID 0000.0001)     ;
(PID.TID 0000.0001) horiVertRatio =   /* Ratio on units : Horiz - Vertical */
(PID.TID 0000.0001)                 9.810000000000000E+00
(PID.TID 0000.0001)     ;
(PID.TID 0000.0001) drC =   /* C spacing ( units of r ) */
(PID.TID 0000.0001)                 5.000000000000000E+04       /* K =  1 */
(PID.TID 0000.0001)     ;
(PID.TID 0000.0001) drF =   /* W spacing ( units of r ) */
(PID.TID 0000.0001)                 1.000000000000000E+05       /* K =  1 */
(PID.TID 0000.0001)     ;
(PID.TID 0000.0001) delX =   /* U spacing ( m - cartesian, degrees - spherical ) */
(PID.TID 0000.0001)   128 @  2.812500000000000E+00              /* I =  1:128 */
(PID.TID 0000.0001)     ;
(PID.TID 0000.0001) delY =   /* V spacing ( m - cartesian, degrees - spherical ) */
(PID.TID 0000.0001)    64 @  2.812500000000000E+00              /* J =  1: 64 */
(PID.TID 0000.0001)     ;
(PID.TID 0000.0001) phiMin =    /* South edge (ignored - cartesian, degrees - spherical ) */
(PID.TID 0000.0001)                -9.000000000000000E+01
(PID.TID 0000.0001)     ;
(PID.TID 0000.0001) thetaMin =    /* West edge ( ignored - cartesian, degrees - spherical ) */
(PID.TID 0000.0001)                 0.000000000000000E+00
(PID.TID 0000.0001)     ;
(PID.TID 0000.0001) rSphere =    /* Radius ( ignored - cartesian, m - spherical ) */
(PID.TID 0000.0001)                 6.370000000000000E+06
(PID.TID 0000.0001)     ;
(PID.TID 0000.0001) xcoord =   /* P-point X coord ( m - cartesian, degrees - spherical ) */
(PID.TID 0000.0001)                 1.406250000000000E+00,      /* I =  1 */
(PID.TID 0000.0001)                 4.218750000000000E+00,      /* I =  2 */
(PID.TID 0000.0001)                 7.031250000000000E+00,      /* I =  3 */
(PID.TID 0000.0001)                 9.843750000000000E+00,      /* I =  4 */
(PID.TID 0000.0001)                 1.265625000000000E+01,      /* I =  5 */
(PID.TID 0000.0001)                 1.546875000000000E+01,      /* I =  6 */
(PID.TID 0000.0001)                 1.828125000000000E+01,      /* I =  7 */
(PID.TID 0000.0001)                 2.109375000000000E+01,      /* I =  8 */
(PID.TID 0000.0001)                 2.390625000000000E+01,      /* I =  9 */
(PID.TID 0000.0001)                 2.671875000000000E+01,      /* I = 10 */
(PID.TID 0000.0001)                 2.953125000000000E+01,      /* I = 11 */
(PID.TID 0000.0001)                 3.234375000000000E+01,      /* I = 12 */
(PID.TID 0000.0001)                 3.515625000000000E+01,      /* I = 13 */
(PID.TID 0000.0001)                 3.796875000000000E+01,      /* I = 14 */
(PID.TID 0000.0001)                 4.078125000000000E+01,      /* I = 15 */
(PID.TID 0000.0001)                 4.359375000000000E+01,      /* I = 16 */
(PID.TID 0000.0001)                 4.640625000000000E+01,      /* I = 17 */
(PID.TID 0000.0001)                 4.921875000000000E+01,      /* I = 18 */
(PID.TID 0000.0001)                 5.203125000000000E+01,      /* I = 19 */
(PID.TID 0000.0001)                 5.484375000000000E+01,      /* I = 20 */
(PID.TID 0000.0001)                 5.765625000000000E+01,      /* I = 21 */
(PID.TID 0000.0001)                 6.046875000000000E+01,      /* I = 22 */
(PID.TID 0000.0001)                 6.328125000000000E+01,      /* I = 23 */
(PID.TID 0000.0001)                 6.609375000000000E+01,      /* I = 24 */
(PID.TID 0000.0001)                 6.890625000000000E+01,      /* I = 25 */
(PID.TID 0000.0001)                 7.171875000000000E+01,      /* I = 26 */
(PID.TID 0000.0001)                 7.453125000000000E+01,      /* I = 27 */
(PID.TID 0000.0001)                 7.734375000000000E+01,      /* I = 28 */
(PID.TID 0000.0001)                 8.015625000000000E+01,      /* I = 29 */
(PID.TID 0000.0001)                 8.296875000000000E+01,      /* I = 30 */
(PID.TID 0000.0001)                 8.578125000000000E+01,      /* I = 31 */
(PID.TID 0000.0001)                 8.859375000000000E+01,      /* I = 32 */
(PID.TID 0000.0001)                 9.140625000000000E+01,      /* I = 33 */
(PID.TID 0000.0001)                 9.421875000000000E+01,      /* I = 34 */
(PID.TID 0000.0001)                 9.703125000000000E+01,      /* I = 35 */
(PID.TID 0000.0001)                 9.984375000000000E+01,      /* I = 36 */
(PID.TID 0000.0001)                 1.026562500000000E+02,      /* I = 37 */
(PID.TID 0000.0001)                 1.054687500000000E+02,      /* I = 38 */
(PID.TID 0000.0001)                 1.082812500000000E+02,      /* I = 39 */
(PID.TID 0000.0001)                 1.110937500000000E+02,      /* I = 40 */
(PID.TID 0000.0001)                 1.139062500000000E+02,      /* I = 41 */
(PID.TID 0000.0001)                 1.167187500000000E+02,      /* I = 42 */
(PID.TID 0000.0001)                 1.195312500000000E+02,      /* I = 43 */
(PID.TID 0000.0001)                 1.223437500000000E+02,      /* I = 44 */
(PID.TID 0000.0001)                 1.251562500000000E+02,      /* I = 45 */
(PID.TID 0000.0001)                 1.279687500000000E+02,      /* I = 46 */
(PID.TID 0000.0001)                 1.307812500000000E+02,      /* I = 47 */
(PID.TID 0000.0001)                 1.335937500000000E+02,      /* I = 48 */
(PID.TID 0000.0001)                 1.364062500000000E+02,      /* I = 49 */
(PID.TID 0000.0001)                 1.392187500000000E+02,      /* I = 50 */
(PID.TID 0000.0001)                 1.420312500000000E+02,      /* I = 51 */
(PID.TID 0000.0001)                 1.448437500000000E+02,      /* I = 52 */
(PID.TID 0000.0001)                 1.476562500000000E+02,      /* I = 53 */
(PID.TID 0000.0001)                 1.504687500000000E+02,      /* I = 54 */
(PID.TID 0000.0001)                 1.532812500000000E+02,      /* I = 55 */
(PID.TID 0000.0001)                 1.560937500000000E+02,      /* I = 56 */
(PID.TID 0000.0001)                 1.589062500000000E+02,      /* I = 57 */
(PID.TID 0000.0001)                 1.617187500000000E+02,      /* I = 58 */
(PID.TID 0000.0001)                 1.645312500000000E+02,      /* I = 59 */
(PID.TID 0000.0001)                 1.673437500000000E+02,      /* I = 60 */
(PID.TID 0000.0001)                 1.701562500000000E+02,      /* I = 61 */
(PID.TID 0000.0001)                 1.729687500000000E+02,      /* I = 62 */
(PID.TID 0000.0001)                 1.757812500000000E+02,      /* I = 63 */
(PID.TID 0000.0001)                 1.785937500000000E+02,      /* I = 64 */
(PID.TID 0000.0001)                 1.814062500000000E+02,      /* I = 65 */
(PID.TID 0000.0001)                 1.842187500000000E+02,      /* I = 66 */
(PID.TID 0000.0001)                 1.870312500000000E+02,      /* I = 67 */
(PID.TID 0000.0001)                 1.898437500000000E+02,      /* I = 68 */
(PID.TID 0000.0001)                 1.926562500000000E+02,      /* I = 69 */
(PID.TID 0000.0001)                 1.954687500000000E+02,      /* I = 70 */
(PID.TID 0000.0001)                 1.982812500000000E+02,      /* I = 71 */
(PID.TID 0000.0001)                 2.010937500000000E+02,      /* I = 72 */
(PID.TID 0000.0001)                 2.039062500000000E+02,      /* I = 73 */
(PID.TID 0000.0001)                 2.067187500000000E+02,      /* I = 74 */
(PID.TID 0000.0001)                 2.095312500000000E+02,      /* I = 75 */
(PID.TID 0000.0001)                 2.123437500000000E+02,      /* I = 76 */
(PID.TID 0000.0001)                 2.151562500000000E+02,      /* I = 77 */
(PID.TID 0000.0001)                 2.179687500000000E+02,      /* I = 78 */
(PID.TID 0000.0001)                 2.207812500000000E+02,      /* I = 79 */
(PID.TID 0000.0001)                 2.235937500000000E+02,      /* I = 80 */
(PID.TID 0000.0001)                 2.264062500000000E+02,      /* I = 81 */
(PID.TID 0000.0001)                 2.292187500000000E+02,      /* I = 82 */
(PID.TID 0000.0001)                 2.320312500000000E+02,      /* I = 83 */
(PID.TID 0000.0001)                 2.348437500000000E+02,      /* I = 84 */
(PID.TID 0000.0001)                 2.376562500000000E+02,      /* I = 85 */
(PID.TID 0000.0001)                 2.404687500000000E+02,      /* I = 86 */
(PID.TID 0000.0001)                 2.432812500000000E+02,      /* I = 87 */
(PID.TID 0000.0001)                 2.460937500000000E+02,      /* I = 88 */
(PID.TID 0000.0001)                 2.489062500000000E+02,      /* I = 89 */
(PID.TID 0000.0001)                 2.517187500000000E+02,      /* I = 90 */
(PID.TID 0000.0001)                 2.545312500000000E+02,      /* I = 91 */
(PID.TID 0000.0001)                 2.573437500000000E+02,      /* I = 92 */
(PID.TID 0000.0001)                 2.601562500000000E+02,      /* I = 93 */
(PID.TID 0000.0001)                 2.629687500000000E+02,      /* I = 94 */
(PID.TID 0000.0001)                 2.657812500000000E+02,      /* I = 95 */
(PID.TID 0000.0001)                 2.685937500000000E+02,      /* I = 96 */
(PID.TID 0000.0001)                 2.714062500000000E+02,      /* I = 97 */
(PID.TID 0000.0001)                 2.742187500000000E+02,      /* I = 98 */
(PID.TID 0000.0001)                 2.770312500000000E+02,      /* I = 99 */
(PID.TID 0000.0001)                 2.798437500000000E+02,      /* I =100 */
(PID.TID 0000.0001)                 2.826562500000000E+02,      /* I =101 */
(PID.TID 0000.0001)                 2.854687500000000E+02,      /* I =102 */
(PID.TID 0000.0001)                 2.882812500000000E+02,      /* I =103 */
(PID.TID 0000.0001)                 2.910937500000000E+02,      /* I =104 */
(PID.TID 0000.0001)                 2.939062500000000E+02,      /* I =105 */
(PID.TID 0000.0001)                 2.967187500000000E+02,      /* I =106 */
(PID.TID 0000.0001)                 2.995312500000000E+02,      /* I =107 */
(PID.TID 0000.0001)                 3.023437500000000E+02,      /* I =108 */
(PID.TID 0000.0001)                 3.051562500000000E+02,      /* I =109 */
(PID.TID 0000.0001)                 3.079687500000000E+02,      /* I =110 */
(PID.TID 0000.0001)                 3.107812500000000E+02,      /* I =111 */
(PID.TID 0000.0001)                 3.135937500000000E+02,      /* I =112 */
(PID.TID 0000.0001)                 3.164062500000000E+02,      /* I =113 */
(PID.TID 0000.0001)                 3.192187500000000E+02,      /* I =114 */
(PID.TID 0000.0001)                 3.220312500000000E+02,      /* I =115 */
(PID.TID 0000.0001)                 3.248437500000000E+02,      /* I =116 */
(PID.TID 0000.0001)                 3.276562500000000E+02,      /* I =117 */
(PID.TID 0000.0001)                 3.304687500000000E+02,      /* I =118 */
(PID.TID 0000.0001)                 3.332812500000000E+02,      /* I =119 */
(PID.TID 0000.0001)                 3.360937500000000E+02,      /* I =120 */
(PID.TID 0000.0001)                 3.389062500000000E+02,      /* I =121 */
(PID.TID 0000.0001)                 3.417187500000000E+02,      /* I =122 */
(PID.TID 0000.0001)                 3.445312500000000E+02,      /* I =123 */
(PID.TID 0000.0001)                 3.473437500000000E+02,      /* I =124 */
(PID.TID 0000.0001)                 3.501562500000000E+02,      /* I =125 */
(PID.TID 0000.0001)                 3.529687500000000E+02,      /* I =126 */
(PID.TID 0000.0001)                 3.557812500000000E+02,      /* I =127 */
(PID.TID 0000.0001)                 3.585937500000000E+02       /* I =128 */
(PID.TID 0000.0001)     ;
(PID.TID 0000.0001) ycoord =   /* P-point Y coord ( m - cartesian, degrees - spherical ) */
(PID.TID 0000.0001)                -8.859375000000000E+01,      /* J =  1 */
(PID.TID 0000.0001)                -8.578125000000000E+01,      /* J =  2 */
(PID.TID 0000.0001)                -8.296875000000000E+01,      /* J =  3 */
(PID.TID 0000.0001)                -8.015625000000000E+01,      /* J =  4 */
(PID.TID 0000.0001)                -7.734375000000000E+01,      /* J =  5 */
(PID.TID 0000.0001)                -7.453125000000000E+01,      /* J =  6 */
(PID.TID 0000.0001)                -7.171875000000000E+01,      /* J =  7 */
(PID.TID 0000.0001)                -6.890625000000000E+01,      /* J =  8 */
(PID.TID 0000.0001)                -6.609375000000000E+01,      /* J =  9 */
(PID.TID 0000.0001)                -6.328125000000000E+01,      /* J = 10 */
(PID.TID 0000.0001)                -6.046875000000000E+01,      /* J = 11 */
(PID.TID 0000.0001)                -5.765625000000000E+01,      /* J = 12 */
(PID.TID 0000.0001)                -5.484375000000000E+01,      /* J = 13 */
(PID.TID 0000.0001)                -5.203125000000000E+01,      /* J = 14 */
(PID.TID 0000.0001)                -4.921875000000000E+01,      /* J = 15 */
(PID.TID 0000.0001)                -4.640625000000000E+01,      /* J = 16 */
(PID.TID 0000.0001)                -4.359375000000000E+01,      /* J = 17 */
(PID.TID 0000.0001)                -4.078125000000000E+01,      /* J = 18 */
(PID.TID 0000.0001)                -3.796875000000000E+01,      /* J = 19 */
(PID.TID 0000.0001)                -3.515625000000000E+01,      /* J = 20 */
(PID.TID 0000.0001)                -3.234375000000000E+01,      /* J = 21 */
(PID.TID 0000.0001)                -2.953125000000000E+01,      /* J = 22 */
(PID.TID 0000.0001)                -2.671875000000000E+01,      /* J = 23 */
(PID.TID 0000.0001)                -2.390625000000000E+01,      /* J = 24 */
(PID.TID 0000.0001)                -2.109375000000000E+01,      /* J = 25 */
(PID.TID 0000.0001)                -1.828125000000000E+01,      /* J = 26 */
(PID.TID 0000.0001)                -1.546875000000000E+01,      /* J = 27 */
(PID.TID 0000.0001)                -1.265625000000000E+01,      /* J = 28 */
(PID.TID 0000.0001)                -9.843750000000000E+00,      /* J = 29 */
(PID.TID 0000.0001)                -7.031250000000000E+00,      /* J = 30 */
(PID.TID 0000.0001)                -4.218750000000000E+00,      /* J = 31 */
(PID.TID 0000.0001)                -1.406250000000000E+00,      /* J = 32 */
(PID.TID 0000.0001)                 1.406250000000000E+00,      /* J = 33 */
(PID.TID 0000.0001)                 4.218750000000000E+00,      /* J = 34 */
(PID.TID 0000.0001)                 7.031250000000000E+00,      /* J = 35 */
(PID.TID 0000.0001)                 9.843750000000000E+00,      /* J = 36 */
(PID.TID 0000.0001)                 1.265625000000000E+01,      /* J = 37 */
(PID.TID 0000.0001)                 1.546875000000000E+01,      /* J = 38 */
(PID.TID 0000.0001)                 1.828125000000000E+01,      /* J = 39 */
(PID.TID 0000.0001)                 2.109375000000000E+01,      /* J = 40 */
(PID.TID 0000.0001)                 2.390625000000000E+01,      /* J = 41 */
(PID.TID 0000.0001)                 2.671875000000000E+01,      /* J = 42 */
(PID.TID 0000.0001)                 2.953125000000000E+01,      /* J = 43 */
(PID.TID 0000.0001)                 3.234375000000000E+01,      /* J = 44 */
(PID.TID 0000.0001)                 3.515625000000000E+01,      /* J = 45 */
(PID.TID 0000.0001)                 3.796875000000000E+01,      /* J = 46 */
(PID.TID 0000.0001)                 4.078125000000000E+01,      /* J = 47 */
(PID.TID 0000.0001)                 4.359375000000000E+01,      /* J = 48 */
(PID.TID 0000.0001)                 4.640625000000000E+01,      /* J = 49 */
(PID.TID 0000.0001)                 4.921875000000000E+01,      /* J = 50 */
(PID.TID 0000.0001)                 5.203125000000000E+01,      /* J = 51 */
(PID.TID 0000.0001)                 5.484375000000000E+01,      /* J = 52 */
(PID.TID 0000.0001)                 5.765625000000000E+01,      /* J = 53 */
(PID.TID 0000.0001)                 6.046875000000000E+01,      /* J = 54 */
(PID.TID 0000.0001)                 6.328125000000000E+01,      /* J = 55 */
(PID.TID 0000.0001)                 6.609375000000000E+01,      /* J = 56 */
(PID.TID 0000.0001)                 6.890625000000000E+01,      /* J = 57 */
(PID.TID 0000.0001)                 7.171875000000000E+01,      /* J = 58 */
(PID.TID 0000.0001)                 7.453125000000000E+01,      /* J = 59 */
(PID.TID 0000.0001)                 7.734375000000000E+01,      /* J = 60 */
(PID.TID 0000.0001)                 8.015625000000000E+01,      /* J = 61 */
(PID.TID 0000.0001)                 8.296875000000000E+01,      /* J = 62 */
(PID.TID 0000.0001)                 8.578125000000000E+01,      /* J = 63 */
(PID.TID 0000.0001)                 8.859375000000000E+01       /* J = 64 */
(PID.TID 0000.0001)     ;
(PID.TID 0000.0001) rcoord =   /* P-point R coordinate (  units of r ) */
(PID.TID 0000.0001)                 5.000000000000000E+04       /* K =  1 */
(PID.TID 0000.0001)     ;
(PID.TID 0000.0001) rF =   /* W-Interf. R coordinate (  units of r ) */
(PID.TID 0000.0001)                 1.000000000000000E+05,      /* K =  1 */
(PID.TID 0000.0001)                 0.000000000000000E+00       /* K =  2 */
(PID.TID 0000.0001)     ;
(PID.TID 0000.0001) dxF =  /* dxF(:,1,:,1) ( m - cartesian, degrees - spherical ) */
(PID.TID 0000.0001)   128 @  7.673714381622298E+03              /* I =  1:128 */
(PID.TID 0000.0001)     ;
(PID.TID 0000.0001) dxF =  /* dxF(1,:,1,:) ( m - cartesian, degrees - spherical ) */
(PID.TID 0000.0001)                 7.673714381622298E+03,      /* J =  1 */
(PID.TID 0000.0001)                 2.300265649478360E+04,      /* J =  2 */
(PID.TID 0000.0001)                 3.827618319365421E+04,      /* J =  3 */
(PID.TID 0000.0001)                 5.345749921461356E+04,      /* J =  4 */
(PID.TID 0000.0001)                 6.851003143764105E+04,      /* J =  5 */
(PID.TID 0000.0001)                 8.339751699416523E+04,      /* J =  6 */
(PID.TID 0000.0001)                 9.808409062749070E+04,      /* J =  7 */
(PID.TID 0000.0001)                 1.125343710953429E+05,      /* J =  8 */
(PID.TID 0000.0001)                 1.267135464063795E+05,      /* J =  9 */
(PID.TID 0000.0001)                 1.405874576853274E+05,      /* J = 10 */
(PID.TID 0000.0001)                 1.541226814647045E+05,      /* J = 11 */
(PID.TID 0000.0001)                 1.672866102048804E+05,      /* J = 12 */
(PID.TID 0000.0001)                 1.800475308484964E+05,      /* J = 13 */
(PID.TID 0000.0001)                 1.923747012199971E+05,      /* J = 14 */
(PID.TID 0000.0001)                 2.042384240862251E+05,      /* J = 15 */
(PID.TID 0000.0001)                 2.156101186996563E+05,      /* J = 16 */
(PID.TID 0000.0001)                 2.264623896519241E+05,      /* J = 17 */
(PID.TID 0000.0001)                 2.367690928717576E+05,      /* J = 18 */
(PID.TID 0000.0001)                 2.465053986083400E+05,      /* J = 19 */
(PID.TID 0000.0001)                 2.556478512483520E+05,      /* J = 20 */
(PID.TID 0000.0001)                 2.641744258225996E+05,      /* J = 21 */
(PID.TID 0000.0001)                 2.720645810660936E+05,      /* J = 22 */
(PID.TID 0000.0001)                 2.792993089037566E+05,      /* J = 23 */
(PID.TID 0000.0001)                 2.858611802425402E+05,      /* J = 24 */
(PID.TID 0000.0001)                 2.917343869596373E+05,      /* J = 25 */
(PID.TID 0000.0001)                 2.969047799856343E+05,      /* J = 26 */
(PID.TID 0000.0001)                 3.013599033908587E+05,      /* J = 27 */
(PID.TID 0000.0001)                 3.050890243928044E+05,      /* J = 28 */
(PID.TID 0000.0001)                 3.080831592123453E+05,      /* J = 29 */
(PID.TID 0000.0001)                 3.103350947164461E+05,      /* J = 30 */
(PID.TID 0000.0001)                 3.118394057952310E+05,      /* J = 31 */
(PID.TID 0000.0001)     2 @  3.125924684315491E+05,             /* J = 32: 33 */
(PID.TID 0000.0001)                 3.118394057952310E+05,      /* J = 34 */
(PID.TID 0000.0001)                 3.103350947164461E+05,      /* J = 35 */
(PID.TID 0000.0001)                 3.080831592123453E+05,      /* J = 36 */
(PID.TID 0000.0001)                 3.050890243928044E+05,      /* J = 37 */
(PID.TID 0000.0001)                 3.013599033908587E+05,      /* J = 38 */
(PID.TID 0000.0001)                 2.969047799856343E+05,      /* J = 39 */
(PID.TID 0000.0001)                 2.917343869596373E+05,      /* J = 40 */
(PID.TID 0000.0001)                 2.858611802425402E+05,      /* J = 41 */
(PID.TID 0000.0001)                 2.792993089037566E+05,      /* J = 42 */
(PID.TID 0000.0001)                 2.720645810660936E+05,      /* J = 43 */
(PID.TID 0000.0001)                 2.641744258225996E+05,      /* J = 44 */
(PID.TID 0000.0001)                 2.556478512483520E+05,      /* J = 45 */
(PID.TID 0000.0001)                 2.465053986083400E+05,      /* J = 46 */
(PID.TID 0000.0001)                 2.367690928717576E+05,      /* J = 47 */
(PID.TID 0000.0001)                 2.264623896519241E+05,      /* J = 48 */
(PID.TID 0000.0001)                 2.156101186996563E+05,      /* J = 49 */
(PID.TID 0000.0001)                 2.042384240862251E+05,      /* J = 50 */
(PID.TID 0000.0001)                 1.923747012199971E+05,      /* J = 51 */
(PID.TID 0000.0001)                 1.800475308484964E+05,      /* J = 52 */
(PID.TID 0000.0001)                 1.672866102048804E+05,      /* J = 53 */
(PID.TID 0000.0001)                 1.541226814647045E+05,      /* J = 54 */
(PID.TID 0000.0001)                 1.405874576853274E+05,      /* J = 55 */
(PID.TID 0000.0001)                 1.267135464063795E+05,      /* J = 56 */
(PID.TID 0000.0001)                 1.125343710953429E+05,      /* J = 57 */
(PID.TID 0000.0001)                 9.808409062749070E+04,      /* J = 58 */
(PID.TID 0000.0001)                 8.339751699416523E+04,      /* J = 59 */
(PID.TID 0000.0001)                 6.851003143764105E+04,      /* J = 60 */
(PID.TID 0000.0001)                 5.345749921461356E+04,      /* J = 61 */
(PID.TID 0000.0001)                 3.827618319365421E+04,      /* J = 62 */
(PID.TID 0000.0001)                 2.300265649478360E+04,      /* J = 63 */
(PID.TID 0000.0001)                 7.673714381622298E+03       /* J = 64 */
(PID.TID 0000.0001)     ;
(PID.TID 0000.0001) dyF =  /* dyF(:,1,:,1) ( m - cartesian, degrees - spherical ) */
(PID.TID 0000.0001)   128 @  3.126866438026091E+05              /* I =  1:128 */
(PID.TID 0000.0001)     ;
(PID.TID 0000.0001) dyF =  /* dyF(1,:,1,:) ( m - cartesian, degrees - spherical ) */
(PID.TID 0000.0001)    64 @  3.126866438026091E+05              /* J =  1: 64 */
(PID.TID 0000.0001)     ;
(PID.TID 0000.0001) dxG =  /* dxG(:,1,:,1) ( m - cartesian, degrees - spherical ) */
(PID.TID 0000.0001)   128 @  0.000000000000000E+00              /* I =  1:128 */
(PID.TID 0000.0001)     ;
(PID.TID 0000.0001) dxG =  /* dxG(1,:,1,:) ( m - cartesian, degrees - spherical ) */
(PID.TID 0000.0001)                 0.000000000000000E+00,      /* J =  1 */
(PID.TID 0000.0001)                 1.534280640463982E+04,      /* J =  2 */
(PID.TID 0000.0001)                 3.064865064477965E+04,      /* J =  3 */
(PID.TID 0000.0001)                 4.588065960101153E+04,      /* J =  4 */
(PID.TID 0000.0001)                 6.100213802959342E+04,      /* J =  5 */
(PID.TID 0000.0001)                 7.597665696450579E+04,      /* J =  6 */
(PID.TID 0000.0001)                 9.076814147802140E+04,      /* J =  7 */
(PID.TID 0000.0001)                 1.053409575883663E+05,      /* J =  8 */
(PID.TID 0000.0001)                 1.196599981051027E+05,      /* J =  9 */
(PID.TID 0000.0001)                 1.336907672054259E+05,      /* J = 10 */
(PID.TID 0000.0001)                 1.473994635376230E+05,      /* J = 11 */
(PID.TID 0000.0001)                 1.607530616514898E+05,      /* J = 12 */
(PID.TID 0000.0001)                 1.737193915595329E+05,      /* J = 13 */
(PID.TID 0000.0001)                 1.862672162372875E+05,      /* J = 14 */
(PID.TID 0000.0001)                 1.983663068760452E+05,      /* J = 15 */
(PID.TID 0000.0001)                 2.099875157067021E+05,      /* J = 16 */
(PID.TID 0000.0001)                 2.211028462192875E+05,      /* J = 17 */
(PID.TID 0000.0001)                 2.316855206090085E+05,      /* J = 18 */
(PID.TID 0000.0001)                 2.417100442863275E+05,      /* J = 19 */
(PID.TID 0000.0001)                 2.511522672956614E+05,      /* J = 20 */
(PID.TID 0000.0001)                 2.599894424947395E+05,      /* J = 21 */
(PID.TID 0000.0001)                 2.682002803544621E+05,      /* J = 22 */
(PID.TID 0000.0001)                 2.757650002472408E+05,      /* J = 23 */
(PID.TID 0000.0001)                 2.826653781002625E+05,      /* J = 24 */
(PID.TID 0000.0001)                 2.888847902988777E+05,      /* J = 25 */
(PID.TID 0000.0001)                 2.944082537343438E+05,      /* J = 26 */
(PID.TID 0000.0001)                 2.992224618994464E+05,      /* J = 27 */
(PID.TID 0000.0001)                 3.033158169450409E+05,      /* J = 28 */
(PID.TID 0000.0001)                 3.066784576202870E+05,      /* J = 29 */
(PID.TID 0000.0001)                 3.093022830292655E+05,      /* J = 30 */
(PID.TID 0000.0001)                 3.111809721467461E+05,      /* J = 31 */
(PID.TID 0000.0001)                 3.123099990460912E+05,      /* J = 32 */
(PID.TID 0000.0001)                 3.126866438026091E+05,      /* J = 33 */
(PID.TID 0000.0001)                 3.123099990460912E+05,      /* J = 34 */
(PID.TID 0000.0001)                 3.111809721467461E+05,      /* J = 35 */
(PID.TID 0000.0001)                 3.093022830292655E+05,      /* J = 36 */
(PID.TID 0000.0001)                 3.066784576202870E+05,      /* J = 37 */
(PID.TID 0000.0001)                 3.033158169450409E+05,      /* J = 38 */
(PID.TID 0000.0001)                 2.992224618994464E+05,      /* J = 39 */
(PID.TID 0000.0001)                 2.944082537343438E+05,      /* J = 40 */
(PID.TID 0000.0001)                 2.888847902988777E+05,      /* J = 41 */
(PID.TID 0000.0001)                 2.826653781002625E+05,      /* J = 42 */
(PID.TID 0000.0001)                 2.757650002472408E+05,      /* J = 43 */
(PID.TID 0000.0001)                 2.682002803544621E+05,      /* J = 44 */
(PID.TID 0000.0001)                 2.599894424947395E+05,      /* J = 45 */
(PID.TID 0000.0001)                 2.511522672956614E+05,      /* J = 46 */
(PID.TID 0000.0001)                 2.417100442863275E+05,      /* J = 47 */
(PID.TID 0000.0001)                 2.316855206090085E+05,      /* J = 48 */
(PID.TID 0000.0001)                 2.211028462192875E+05,      /* J = 49 */
(PID.TID 0000.0001)                 2.099875157067021E+05,      /* J = 50 */
(PID.TID 0000.0001)                 1.983663068760452E+05,      /* J = 51 */
(PID.TID 0000.0001)                 1.862672162372875E+05,      /* J = 52 */
(PID.TID 0000.0001)                 1.737193915595329E+05,      /* J = 53 */
(PID.TID 0000.0001)                 1.607530616514898E+05,      /* J = 54 */
(PID.TID 0000.0001)                 1.473994635376230E+05,      /* J = 55 */
(PID.TID 0000.0001)                 1.336907672054259E+05,      /* J = 56 */
(PID.TID 0000.0001)                 1.196599981051027E+05,      /* J = 57 */
(PID.TID 0000.0001)                 1.053409575883663E+05,      /* J = 58 */
(PID.TID 0000.0001)                 9.076814147802140E+04,      /* J = 59 */
(PID.TID 0000.0001)                 7.597665696450579E+04,      /* J = 60 */
(PID.TID 0000.0001)                 6.100213802959342E+04,      /* J = 61 */
(PID.TID 0000.0001)                 4.588065960101153E+04,      /* J = 62 */
(PID.TID 0000.0001)                 3.064865064477965E+04,      /* J = 63 */
(PID.TID 0000.0001)                 1.534280640463982E+04       /* J = 64 */
(PID.TID 0000.0001)     ;
(PID.TID 0000.0001) dyG =  /* dyG(:,1,:,1) ( m - cartesian, degrees - spherical ) */
(PID.TID 0000.0001)   128 @  3.126866438026091E+05              /* I =  1:128 */
(PID.TID 0000.0001)     ;
(PID.TID 0000.0001) dyG =  /* dyG(1,:,1,:) ( m - cartesian, degrees - spherical ) */
(PID.TID 0000.0001)    64 @  3.126866438026091E+05              /* J =  1: 64 */
(PID.TID 0000.0001)     ;
(PID.TID 0000.0001) dxC =  /* dxC(:,1,:,1) ( m - cartesian, degrees - spherical ) */
(PID.TID 0000.0001)   128 @  7.673714381622298E+03              /* I =  1:128 */
(PID.TID 0000.0001)     ;
(PID.TID 0000.0001) dxC =  /* dxC(1,:,1,:) ( m - cartesian, degrees - spherical ) */
(PID.TID 0000.0001)                 7.673714381622298E+03,      /* J =  1 */
(PID.TID 0000.0001)                 2.300265649478360E+04,      /* J =  2 */
(PID.TID 0000.0001)                 3.827618319365421E+04,      /* J =  3 */
(PID.TID 0000.0001)                 5.345749921461356E+04,      /* J =  4 */
(PID.TID 0000.0001)                 6.851003143764105E+04,      /* J =  5 */
(PID.TID 0000.0001)                 8.339751699416523E+04,      /* J =  6 */
(PID.TID 0000.0001)                 9.808409062749070E+04,      /* J =  7 */
(PID.TID 0000.0001)                 1.125343710953429E+05,      /* J =  8 */
(PID.TID 0000.0001)                 1.267135464063795E+05,      /* J =  9 */
(PID.TID 0000.0001)                 1.405874576853274E+05,      /* J = 10 */
(PID.TID 0000.0001)                 1.541226814647045E+05,      /* J = 11 */
(PID.TID 0000.0001)                 1.672866102048804E+05,      /* J = 12 */
(PID.TID 0000.0001)                 1.800475308484964E+05,      /* J = 13 */
(PID.TID 0000.0001)                 1.923747012199971E+05,      /* J = 14 */
(PID.TID 0000.0001)                 2.042384240862251E+05,      /* J = 15 */
(PID.TID 0000.0001)                 2.156101186996563E+05,      /* J = 16 */
(PID.TID 0000.0001)                 2.264623896519241E+05,      /* J = 17 */
(PID.TID 0000.0001)                 2.367690928717576E+05,      /* J = 18 */
(PID.TID 0000.0001)                 2.465053986083400E+05,      /* J = 19 */
(PID.TID 0000.0001)                 2.556478512483520E+05,      /* J = 20 */
(PID.TID 0000.0001)                 2.641744258225996E+05,      /* J = 21 */
(PID.TID 0000.0001)                 2.720645810660936E+05,      /* J = 22 */
(PID.TID 0000.0001)                 2.792993089037566E+05,      /* J = 23 */
(PID.TID 0000.0001)                 2.858611802425402E+05,      /* J = 24 */
(PID.TID 0000.0001)                 2.917343869596373E+05,      /* J = 25 */
(PID.TID 0000.0001)                 2.969047799856343E+05,      /* J = 26 */
(PID.TID 0000.0001)                 3.013599033908587E+05,      /* J = 27 */
(PID.TID 0000.0001)                 3.050890243928044E+05,      /* J = 28 */
(PID.TID 0000.0001)                 3.080831592123453E+05,      /* J = 29 */
(PID.TID 0000.0001)                 3.103350947164461E+05,      /* J = 30 */
(PID.TID 0000.0001)                 3.118394057952310E+05,      /* J = 31 */
(PID.TID 0000.0001)     2 @  3.125924684315491E+05,             /* J = 32: 33 */
(PID.TID 0000.0001)                 3.118394057952310E+05,      /* J = 34 */
(PID.TID 0000.0001)                 3.103350947164461E+05,      /* J = 35 */
(PID.TID 0000.0001)                 3.080831592123453E+05,      /* J = 36 */
(PID.TID 0000.0001)                 3.050890243928044E+05,      /* J = 37 */
(PID.TID 0000.0001)                 3.013599033908587E+05,      /* J = 38 */
(PID.TID 0000.0001)                 2.969047799856343E+05,      /* J = 39 */
(PID.TID 0000.0001)                 2.917343869596373E+05,      /* J = 40 */
(PID.TID 0000.0001)                 2.858611802425402E+05,      /* J = 41 */
(PID.TID 0000.0001)                 2.792993089037566E+05,      /* J = 42 */
(PID.TID 0000.0001)                 2.720645810660936E+05,      /* J = 43 */
(PID.TID 0000.0001)                 2.641744258225996E+05,      /* J = 44 */
(PID.TID 0000.0001)                 2.556478512483520E+05,      /* J = 45 */
(PID.TID 0000.0001)                 2.465053986083400E+05,      /* J = 46 */
(PID.TID 0000.0001)                 2.367690928717576E+05,      /* J = 47 */
(PID.TID 0000.0001)                 2.264623896519241E+05,      /* J = 48 */
(PID.TID 0000.0001)                 2.156101186996563E+05,      /* J = 49 */
(PID.TID 0000.0001)                 2.042384240862251E+05,      /* J = 50 */
(PID.TID 0000.0001)                 1.923747012199971E+05,      /* J = 51 */
(PID.TID 0000.0001)                 1.800475308484964E+05,      /* J = 52 */
(PID.TID 0000.0001)                 1.672866102048804E+05,      /* J = 53 */
(PID.TID 0000.0001)                 1.541226814647045E+05,      /* J = 54 */
(PID.TID 0000.0001)                 1.405874576853274E+05,      /* J = 55 */
(PID.TID 0000.0001)                 1.267135464063795E+05,      /* J = 56 */
(PID.TID 0000.0001)                 1.125343710953429E+05,      /* J = 57 */
(PID.TID 0000.0001)                 9.808409062749070E+04,      /* J = 58 */
(PID.TID 0000.0001)                 8.339751699416523E+04,      /* J = 59 */
(PID.TID 0000.0001)                 6.851003143764105E+04,      /* J = 60 */
(PID.TID 0000.0001)                 5.345749921461356E+04,      /* J = 61 */
(PID.TID 0000.0001)                 3.827618319365421E+04,      /* J = 62 */
(PID.TID 0000.0001)                 2.300265649478360E+04,      /* J = 63 */
(PID.TID 0000.0001)                 7.673714381622298E+03       /* J = 64 */
(PID.TID 0000.0001)     ;
(PID.TID 0000.0001) dyC =  /* dyC(:,1,:,1) ( m - cartesian, degrees - spherical ) */
(PID.TID 0000.0001)   128 @  3.126866438026091E+05              /* I =  1:128 */
(PID.TID 0000.0001)     ;
(PID.TID 0000.0001) dyC =  /* dyC(1,:,1,:) ( m - cartesian, degrees - spherical ) */
(PID.TID 0000.0001)    64 @  3.126866438026091E+05              /* J =  1: 64 */
(PID.TID 0000.0001)     ;
(PID.TID 0000.0001) dxV =  /* dxV(:,1,:,1) ( m - cartesian, degrees - spherical ) */
(PID.TID 0000.0001)   128 @  0.000000000000000E+00              /* I =  1:128 */
(PID.TID 0000.0001)     ;
(PID.TID 0000.0001) dxV =  /* dxV(1,:,1,:) ( m - cartesian, degrees - spherical ) */
(PID.TID 0000.0001)                 0.000000000000000E+00,      /* J =  1 */
(PID.TID 0000.0001)                 1.534280640463982E+04,      /* J =  2 */
(PID.TID 0000.0001)                 3.064865064477965E+04,      /* J =  3 */
(PID.TID 0000.0001)                 4.588065960101153E+04,      /* J =  4 */
(PID.TID 0000.0001)                 6.100213802959342E+04,      /* J =  5 */
(PID.TID 0000.0001)                 7.597665696450579E+04,      /* J =  6 */
(PID.TID 0000.0001)                 9.076814147802140E+04,      /* J =  7 */
(PID.TID 0000.0001)                 1.053409575883663E+05,      /* J =  8 */
(PID.TID 0000.0001)                 1.196599981051027E+05,      /* J =  9 */
(PID.TID 0000.0001)                 1.336907672054259E+05,      /* J = 10 */
(PID.TID 0000.0001)                 1.473994635376230E+05,      /* J = 11 */
(PID.TID 0000.0001)                 1.607530616514898E+05,      /* J = 12 */
(PID.TID 0000.0001)                 1.737193915595329E+05,      /* J = 13 */
(PID.TID 0000.0001)                 1.862672162372875E+05,      /* J = 14 */
(PID.TID 0000.0001)                 1.983663068760452E+05,      /* J = 15 */
(PID.TID 0000.0001)                 2.099875157067021E+05,      /* J = 16 */
(PID.TID 0000.0001)                 2.211028462192875E+05,      /* J = 17 */
(PID.TID 0000.0001)                 2.316855206090085E+05,      /* J = 18 */
(PID.TID 0000.0001)                 2.417100442863275E+05,      /* J = 19 */
(PID.TID 0000.0001)                 2.511522672956614E+05,      /* J = 20 */
(PID.TID 0000.0001)                 2.599894424947395E+05,      /* J = 21 */
(PID.TID 0000.0001)                 2.682002803544621E+05,      /* J = 22 */
(PID.TID 0000.0001)                 2.757650002472408E+05,      /* J = 23 */
(PID.TID 0000.0001)                 2.826653781002625E+05,      /* J = 24 */
(PID.TID 0000.0001)                 2.888847902988777E+05,      /* J = 25 */
(PID.TID 0000.0001)                 2.944082537343438E+05,      /* J = 26 */
(PID.TID 0000.0001)                 2.992224618994464E+05,      /* J = 27 */
(PID.TID 0000.0001)                 3.033158169450409E+05,      /* J = 28 */
(PID.TID 0000.0001)                 3.066784576202870E+05,      /* J = 29 */
(PID.TID 0000.0001)                 3.093022830292655E+05,      /* J = 30 */
(PID.TID 0000.0001)                 3.111809721467461E+05,      /* J = 31 */
(PID.TID 0000.0001)                 3.123099990460912E+05,      /* J = 32 */
(PID.TID 0000.0001)                 3.126866438026091E+05,      /* J = 33 */
(PID.TID 0000.0001)                 3.123099990460912E+05,      /* J = 34 */
(PID.TID 0000.0001)                 3.111809721467461E+05,      /* J = 35 */
(PID.TID 0000.0001)                 3.093022830292655E+05,      /* J = 36 */
(PID.TID 0000.0001)                 3.066784576202870E+05,      /* J = 37 */
(PID.TID 0000.0001)                 3.033158169450409E+05,      /* J = 38 */
(PID.TID 0000.0001)                 2.992224618994464E+05,      /* J = 39 */
(PID.TID 0000.0001)                 2.944082537343438E+05,      /* J = 40 */
(PID.TID 0000.0001)                 2.888847902988777E+05,      /* J = 41 */
(PID.TID 0000.0001)                 2.826653781002625E+05,      /* J = 42 */
(PID.TID 0000.0001)                 2.757650002472408E+05,      /* J = 43 */
(PID.TID 0000.0001)                 2.682002803544621E+05,      /* J = 44 */
(PID.TID 0000.0001)                 2.599894424947395E+05,      /* J = 45 */
(PID.TID 0000.0001)                 2.511522672956614E+05,      /* J = 46 */
(PID.TID 0000.0001)                 2.417100442863275E+05,      /* J = 47 */
(PID.TID 0000.0001)                 2.316855206090085E+05,      /* J = 48 */
(PID.TID 0000.0001)                 2.211028462192875E+05,      /* J = 49 */
(PID.TID 0000.0001)                 2.099875157067021E+05,      /* J = 50 */
(PID.TID 0000.0001)                 1.983663068760452E+05,      /* J = 51 */
(PID.TID 0000.0001)                 1.862672162372875E+05,      /* J = 52 */
(PID.TID 0000.0001)                 1.737193915595329E+05,      /* J = 53 */
(PID.TID 0000.0001)                 1.607530616514898E+05,      /* J = 54 */
(PID.TID 0000.0001)                 1.473994635376230E+05,      /* J = 55 */
(PID.TID 0000.0001)                 1.336907672054259E+05,      /* J = 56 */
(PID.TID 0000.0001)                 1.196599981051027E+05,      /* J = 57 */
(PID.TID 0000.0001)                 1.053409575883663E+05,      /* J = 58 */
(PID.TID 0000.0001)                 9.076814147802140E+04,      /* J = 59 */
(PID.TID 0000.0001)                 7.597665696450579E+04,      /* J = 60 */
(PID.TID 0000.0001)                 6.100213802959342E+04,      /* J = 61 */
(PID.TID 0000.0001)                 4.588065960101153E+04,      /* J = 62 */
(PID.TID 0000.0001)                 3.064865064477965E+04,      /* J = 63 */
(PID.TID 0000.0001)                 1.534280640463982E+04       /* J = 64 */
(PID.TID 0000.0001)     ;
(PID.TID 0000.0001) dyU =  /* dyU(:,1,:,1) ( m - cartesian, degrees - spherical ) */
(PID.TID 0000.0001)   128 @  3.126866438026091E+05              /* I =  1:128 */
(PID.TID 0000.0001)     ;
(PID.TID 0000.0001) dyU =  /* dyU(1,:,1,:) ( m - cartesian, degrees - spherical ) */
(PID.TID 0000.0001)    64 @  3.126866438026091E+05              /* J =  1: 64 */
(PID.TID 0000.0001)     ;
(PID.TID 0000.0001) rA =  /* rA(:,1,:,1) ( m - cartesian, degrees - spherical ) */
(PID.TID 0000.0001)   128 @  2.399227099019054E+09              /* I =  1:128 */
(PID.TID 0000.0001)     ;
(PID.TID 0000.0001) rA =  /* rA(1,:,1,:) ( m - cartesian, degrees - spherical ) */
(PID.TID 0000.0001)                 2.399227099019054E+09,      /* J =  1 */
(PID.TID 0000.0001)                 7.191901348828095E+09,      /* J =  2 */
(PID.TID 0000.0001)                 1.196724967835172E+10,      /* J =  3 */
(PID.TID 0000.0001)                 1.671376785519289E+10,      /* J =  4 */
(PID.TID 0000.0001)                 2.142002110131774E+10,      /* J =  5 */
(PID.TID 0000.0001)                 2.607467164043713E+10,      /* J =  6 */
(PID.TID 0000.0001)                 3.066650601170344E+10,      /* J =  7 */
(PID.TID 0000.0001)                 3.518446208391876E+10,      /* J =  8 */
(PID.TID 0000.0001)                 3.961765570517902E+10,      /* J =  9 */
(PID.TID 0000.0001)                 4.395540692374849E+10,      /* J = 10 */
(PID.TID 0000.0001)                 4.818726571700011E+10,      /* J = 11 */
(PID.TID 0000.0001)                 5.230303716643329E+10,      /* J = 12 */
(PID.TID 0000.0001)                 5.629280601812742E+10,      /* J = 13 */
(PID.TID 0000.0001)                 6.014696056945666E+10,      /* J = 14 */
(PID.TID 0000.0001)                 6.385621582452226E+10,      /* J = 15 */
(PID.TID 0000.0001)                 6.741163586252296E+10,      /* J = 16 */
(PID.TID 0000.0001)                 7.080465536516859E+10,      /* J = 17 */
(PID.TID 0000.0001)                 7.402710025128450E+10,      /* J = 18 */
(PID.TID 0000.0001)                 7.707120736888654E+10,      /* J = 19 */
(PID.TID 0000.0001)                 7.992964319729680E+10,      /* J = 20 */
(PID.TID 0000.0001)                 8.259552151423453E+10,      /* J = 21 */
(PID.TID 0000.0001)                 8.506241998533157E+10,      /* J = 22 */
(PID.TID 0000.0001)                 8.732439563609564E+10,      /* J = 23 */
(PID.TID 0000.0001)                 8.937599916905875E+10,      /* J = 24 */
(PID.TID 0000.0001)                 9.121228809161064E+10,      /* J = 25 */
(PID.TID 0000.0001)                 9.282883862289697E+10,      /* J = 26 */
(PID.TID 0000.0001)                 9.422175635109477E+10,      /* J = 27 */
(PID.TID 0000.0001)                 9.538768561539165E+10,      /* J = 28 */
(PID.TID 0000.0001)                 9.632381759006653E+10,      /* J = 29 */
(PID.TID 0000.0001)                 9.702789705119699E+10,      /* J = 30 */
(PID.TID 0000.0001)                 9.749822780969106E+10,      /* J = 31 */
(PID.TID 0000.0001)     2 @  9.773367679755542E+10,             /* J = 32: 33 */
(PID.TID 0000.0001)                 9.749822780969106E+10,      /* J = 34 */
(PID.TID 0000.0001)                 9.702789705119699E+10,      /* J = 35 */
(PID.TID 0000.0001)                 9.632381759006653E+10,      /* J = 36 */
(PID.TID 0000.0001)                 9.538768561539165E+10,      /* J = 37 */
(PID.TID 0000.0001)                 9.422175635109477E+10,      /* J = 38 */
(PID.TID 0000.0001)                 9.282883862289697E+10,      /* J = 39 */
(PID.TID 0000.0001)                 9.121228809161064E+10,      /* J = 40 */
(PID.TID 0000.0001)                 8.937599916905875E+10,      /* J = 41 */
(PID.TID 0000.0001)                 8.732439563609564E+10,      /* J = 42 */
(PID.TID 0000.0001)                 8.506241998533157E+10,      /* J = 43 */
(PID.TID 0000.0001)                 8.259552151423453E+10,      /* J = 44 */
(PID.TID 0000.0001)                 7.992964319729680E+10,      /* J = 45 */
(PID.TID 0000.0001)                 7.707120736888654E+10,      /* J = 46 */
(PID.TID 0000.0001)                 7.402710025128450E+10,      /* J = 47 */
(PID.TID 0000.0001)                 7.080465536516859E+10,      /* J = 48 */
(PID.TID 0000.0001)                 6.741163586252296E+10,      /* J = 49 */
(PID.TID 0000.0001)                 6.385621582452226E+10,      /* J = 50 */
(PID.TID 0000.0001)                 6.014696056945666E+10,      /* J = 51 */
(PID.TID 0000.0001)                 5.629280601812742E+10,      /* J = 52 */
(PID.TID 0000.0001)                 5.230303716643329E+10,      /* J = 53 */
(PID.TID 0000.0001)                 4.818726571700011E+10,      /* J = 54 */
(PID.TID 0000.0001)                 4.395540692374849E+10,      /* J = 55 */
(PID.TID 0000.0001)                 3.961765570517902E+10,      /* J = 56 */
(PID.TID 0000.0001)                 3.518446208391876E+10,      /* J = 57 */
(PID.TID 0000.0001)                 3.066650601170344E+10,      /* J = 58 */
(PID.TID 0000.0001)                 2.607467164043713E+10,      /* J = 59 */
(PID.TID 0000.0001)                 2.142002110131774E+10,      /* J = 60 */
(PID.TID 0000.0001)                 1.671376785519289E+10,      /* J = 61 */
(PID.TID 0000.0001)                 1.196724967835172E+10,      /* J = 62 */
(PID.TID 0000.0001)                 7.191901348828095E+09,      /* J = 63 */
(PID.TID 0000.0001)                 2.399227099019054E+09       /* J = 64 */
(PID.TID 0000.0001)     ;
(PID.TID 0000.0001) rAw =  /* rAw(:,1,:,1) ( m - cartesian, degrees - spherical ) */
(PID.TID 0000.0001)   128 @  2.399227099019054E+09              /* I =  1:128 */
(PID.TID 0000.0001)     ;
(PID.TID 0000.0001) rAw =  /* rAw(1,:,1,:) ( m - cartesian, degrees - spherical ) */
(PID.TID 0000.0001)                 2.399227099019054E+09,      /* J =  1 */
(PID.TID 0000.0001)                 7.191901348828095E+09,      /* J =  2 */
(PID.TID 0000.0001)                 1.196724967835172E+10,      /* J =  3 */
(PID.TID 0000.0001)                 1.671376785519289E+10,      /* J =  4 */
(PID.TID 0000.0001)                 2.142002110131774E+10,      /* J =  5 */
(PID.TID 0000.0001)                 2.607467164043713E+10,      /* J =  6 */
(PID.TID 0000.0001)                 3.066650601170344E+10,      /* J =  7 */
(PID.TID 0000.0001)                 3.518446208391876E+10,      /* J =  8 */
(PID.TID 0000.0001)                 3.961765570517902E+10,      /* J =  9 */
(PID.TID 0000.0001)                 4.395540692374849E+10,      /* J = 10 */
(PID.TID 0000.0001)                 4.818726571700011E+10,      /* J = 11 */
(PID.TID 0000.0001)                 5.230303716643329E+10,      /* J = 12 */
(PID.TID 0000.0001)                 5.629280601812742E+10,      /* J = 13 */
(PID.TID 0000.0001)                 6.014696056945666E+10,      /* J = 14 */
(PID.TID 0000.0001)                 6.385621582452226E+10,      /* J = 15 */
(PID.TID 0000.0001)                 6.741163586252296E+10,      /* J = 16 */
(PID.TID 0000.0001)                 7.080465536516859E+10,      /* J = 17 */
(PID.TID 0000.0001)                 7.402710025128450E+10,      /* J = 18 */
(PID.TID 0000.0001)                 7.707120736888654E+10,      /* J = 19 */
(PID.TID 0000.0001)                 7.992964319729680E+10,      /* J = 20 */
(PID.TID 0000.0001)                 8.259552151423453E+10,      /* J = 21 */
(PID.TID 0000.0001)                 8.506241998533157E+10,      /* J = 22 */
(PID.TID 0000.0001)                 8.732439563609564E+10,      /* J = 23 */
(PID.TID 0000.0001)                 8.937599916905875E+10,      /* J = 24 */
(PID.TID 0000.0001)                 9.121228809161064E+10,      /* J = 25 */
(PID.TID 0000.0001)                 9.282883862289697E+10,      /* J = 26 */
(PID.TID 0000.0001)                 9.422175635109477E+10,      /* J = 27 */
(PID.TID 0000.0001)                 9.538768561539165E+10,      /* J = 28 */
(PID.TID 0000.0001)                 9.632381759006653E+10,      /* J = 29 */
(PID.TID 0000.0001)                 9.702789705119699E+10,      /* J = 30 */
(PID.TID 0000.0001)                 9.749822780969106E+10,      /* J = 31 */
(PID.TID 0000.0001)     2 @  9.773367679755542E+10,             /* J = 32: 33 */
(PID.TID 0000.0001)                 9.749822780969106E+10,      /* J = 34 */
(PID.TID 0000.0001)                 9.702789705119699E+10,      /* J = 35 */
(PID.TID 0000.0001)                 9.632381759006653E+10,      /* J = 36 */
(PID.TID 0000.0001)                 9.538768561539165E+10,      /* J = 37 */
(PID.TID 0000.0001)                 9.422175635109477E+10,      /* J = 38 */
(PID.TID 0000.0001)                 9.282883862289697E+10,      /* J = 39 */
(PID.TID 0000.0001)                 9.121228809161064E+10,      /* J = 40 */
(PID.TID 0000.0001)                 8.937599916905875E+10,      /* J = 41 */
(PID.TID 0000.0001)                 8.732439563609564E+10,      /* J = 42 */
(PID.TID 0000.0001)                 8.506241998533157E+10,      /* J = 43 */
(PID.TID 0000.0001)                 8.259552151423453E+10,      /* J = 44 */
(PID.TID 0000.0001)                 7.992964319729680E+10,      /* J = 45 */
(PID.TID 0000.0001)                 7.707120736888654E+10,      /* J = 46 */
(PID.TID 0000.0001)                 7.402710025128450E+10,      /* J = 47 */
(PID.TID 0000.0001)                 7.080465536516859E+10,      /* J = 48 */
(PID.TID 0000.0001)                 6.741163586252296E+10,      /* J = 49 */
(PID.TID 0000.0001)                 6.385621582452226E+10,      /* J = 50 */
(PID.TID 0000.0001)                 6.014696056945666E+10,      /* J = 51 */
(PID.TID 0000.0001)                 5.629280601812742E+10,      /* J = 52 */
(PID.TID 0000.0001)                 5.230303716643329E+10,      /* J = 53 */
(PID.TID 0000.0001)                 4.818726571700011E+10,      /* J = 54 */
(PID.TID 0000.0001)                 4.395540692374849E+10,      /* J = 55 */
(PID.TID 0000.0001)                 3.961765570517902E+10,      /* J = 56 */
(PID.TID 0000.0001)                 3.518446208391876E+10,      /* J = 57 */
(PID.TID 0000.0001)                 3.066650601170344E+10,      /* J = 58 */
(PID.TID 0000.0001)                 2.607467164043713E+10,      /* J = 59 */
(PID.TID 0000.0001)                 2.142002110131774E+10,      /* J = 60 */
(PID.TID 0000.0001)                 1.671376785519289E+10,      /* J = 61 */
(PID.TID 0000.0001)                 1.196724967835172E+10,      /* J = 62 */
(PID.TID 0000.0001)                 7.191901348828095E+09,      /* J = 63 */
(PID.TID 0000.0001)                 2.399227099019054E+09       /* J = 64 */
(PID.TID 0000.0001)     ;
(PID.TID 0000.0001) rAs =  /* rAs(:,1,:,1) ( m - cartesian, degrees - spherical ) */
(PID.TID 0000.0001)   128 @  0.000000000000000E+00              /* I =  1:128 */
(PID.TID 0000.0001)     ;
(PID.TID 0000.0001) rAs =  /* rAs(1,:,1,:) ( m - cartesian, degrees - spherical ) */
(PID.TID 0000.0001)                 0.000000000000000E+00,      /* J =  1 */
(PID.TID 0000.0001)                 4.797008993346521E+09,      /* J =  2 */
(PID.TID 0000.0001)                 9.582461571859713E+09,      /* J =  3 */
(PID.TID 0000.0001)                 1.434482916112171E+10,      /* J =  4 */
(PID.TID 0000.0001)                 1.907263880047606E+10,      /* J =  5 */
(PID.TID 0000.0001)                 2.375450078239415E+10,      /* J =  6 */
(PID.TID 0000.0001)                 2.837913609127892E+10,      /* J =  7 */
(PID.TID 0000.0001)                 3.293540357560105E+10,      /* J =  8 */
(PID.TID 0000.0001)                 3.741232678790874E+10,      /* J =  9 */
(PID.TID 0000.0001)                 4.179912042805189E+10,      /* J = 10 */
(PID.TID 0000.0001)                 4.608521632591315E+10,      /* J = 11 */
(PID.TID 0000.0001)                 5.026028890105708E+10,      /* J = 12 */
(PID.TID 0000.0001)                 5.431428003795686E+10,      /* J = 13 */
(PID.TID 0000.0001)                 5.823742331687625E+10,      /* J = 14 */
(PID.TID 0000.0001)                 6.202026754202961E+10,      /* J = 15 */
(PID.TID 0000.0001)                 6.565369951034008E+10,      /* J = 16 */
(PID.TID 0000.0001)                 6.912896596594554E+10,      /* J = 17 */
(PID.TID 0000.0001)                 7.243769468755643E+10,      /* J = 18 */
(PID.TID 0000.0001)                 7.557191465787260E+10,      /* J = 19 */
(PID.TID 0000.0001)                 7.852407526645969E+10,      /* J = 20 */
(PID.TID 0000.0001)                 8.128706449983356E+10,      /* J = 21 */
(PID.TID 0000.0001)                 8.385422607492099E+10,      /* J = 22 */
(PID.TID 0000.0001)                 8.621937547463147E+10,      /* J = 23 */
(PID.TID 0000.0001)                 8.837681484689810E+10,      /* J = 24 */
(PID.TID 0000.0001)                 9.032134673130382E+10,      /* J = 25 */
(PID.TID 0000.0001)                 9.204828658021820E+10,      /* J = 26 */
(PID.TID 0000.0001)                 9.355347404428316E+10,      /* J = 27 */
(PID.TID 0000.0001)                 9.483328299505894E+10,      /* J = 28 */
(PID.TID 0000.0001)                 9.588463026068498E+10,      /* J = 29 */
(PID.TID 0000.0001)                 9.670498305351137E+10,      /* J = 30 */
(PID.TID 0000.0001)                 9.729236507180573E+10,      /* J = 31 */
(PID.TID 0000.0001)                 9.764536126083739E+10,      /* J = 32 */
(PID.TID 0000.0001)                 9.776312122186816E+10,      /* J = 33 */
(PID.TID 0000.0001)                 9.764536126083739E+10,      /* J = 34 */
(PID.TID 0000.0001)                 9.729236507180573E+10,      /* J = 35 */
(PID.TID 0000.0001)                 9.670498305351137E+10,      /* J = 36 */
(PID.TID 0000.0001)                 9.588463026068498E+10,      /* J = 37 */
(PID.TID 0000.0001)                 9.483328299505894E+10,      /* J = 38 */
(PID.TID 0000.0001)                 9.355347404428316E+10,      /* J = 39 */
(PID.TID 0000.0001)                 9.204828658021820E+10,      /* J = 40 */
(PID.TID 0000.0001)                 9.032134673130382E+10,      /* J = 41 */
(PID.TID 0000.0001)                 8.837681484689810E+10,      /* J = 42 */
(PID.TID 0000.0001)                 8.621937547463147E+10,      /* J = 43 */
(PID.TID 0000.0001)                 8.385422607492099E+10,      /* J = 44 */
(PID.TID 0000.0001)                 8.128706449983356E+10,      /* J = 45 */
(PID.TID 0000.0001)                 7.852407526645969E+10,      /* J = 46 */
(PID.TID 0000.0001)                 7.557191465787260E+10,      /* J = 47 */
(PID.TID 0000.0001)                 7.243769468755643E+10,      /* J = 48 */
(PID.TID 0000.0001)                 6.912896596594554E+10,      /* J = 49 */
(PID.TID 0000.0001)                 6.565369951034008E+10,      /* J = 50 */
(PID.TID 0000.0001)                 6.202026754202961E+10,      /* J = 51 */
(PID.TID 0000.0001)                 5.823742331687625E+10,      /* J = 52 */
(PID.TID 0000.0001)                 5.431428003795686E+10,      /* J = 53 */
(PID.TID 0000.0001)                 5.026028890105708E+10,      /* J = 54 */
(PID.TID 0000.0001)                 4.608521632591315E+10,      /* J = 55 */
(PID.TID 0000.0001)                 4.179912042805189E+10,      /* J = 56 */
(PID.TID 0000.0001)                 3.741232678790874E+10,      /* J = 57 */
(PID.TID 0000.0001)                 3.293540357560105E+10,      /* J = 58 */
(PID.TID 0000.0001)                 2.837913609127892E+10,      /* J = 59 */
(PID.TID 0000.0001)                 2.375450078239415E+10,      /* J = 60 */
(PID.TID 0000.0001)                 1.907263880047606E+10,      /* J = 61 */
(PID.TID 0000.0001)                 1.434482916112171E+10,      /* J = 62 */
(PID.TID 0000.0001)                 9.582461571859713E+09,      /* J = 63 */
(PID.TID 0000.0001)                 4.797008993346521E+09       /* J = 64 */
(PID.TID 0000.0001)     ;
(PID.TID 0000.0001) 
(PID.TID 0000.0001) // =======================================================
(PID.TID 0000.0001) // Field Initial Temperature at iteration          1
(PID.TID 0000.0001) // CMIN =          3.000000000000000E+02
(PID.TID 0000.0001) // CMAX =          3.000000000000000E+02
(PID.TID 0000.0001) // CINT =          0.000000000000000E+00
(PID.TID 0000.0001) // SYMBOLS (CMIN->CMAX): -abcdefghijklmnopqrstuvwxyz+
(PID.TID 0000.0001) //                  0.0: .
(PID.TID 0000.0001) // RANGE I (Lo:Hi:Step):(   1: 128:   1)
(PID.TID 0000.0001) // RANGE J (Lo:Hi:Step):(  64:   1:  -1)
(PID.TID 0000.0001) // RANGE K (Lo:Hi:Step):(   1:   1:   1)
(PID.TID 0000.0001) // =======================================================
(PID.TID 0000.0001) K =   1
(PID.TID 0000.0001)                I=10      I=20      I=30      I=40      I=50      I=60      I=70      I=80      I=90      I=100     I=110     I=120
(PID.TID 0000.0001) |--J--|123456789|123456789|123456789|123456789|123456789|123456789|123456789|123456789|123456789|123456789|123456789|123456789|12345678
(PID.TID 0000.0001)     64 --------------------------------------------------------------------------------------------------------------------------------
(PID.TID 0000.0001)     63 --------------------------------------------------------------------------------------------------------------------------------
(PID.TID 0000.0001)     62 --------------------------------------------------------------------------------------------------------------------------------
(PID.TID 0000.0001)     61 --------------------------------------------------------------------------------------------------------------------------------
(PID.TID 0000.0001)     60 --------------------------------------------------------------------------------------------------------------------------------
(PID.TID 0000.0001)     59 --------------------------------------------------------------------------------------------------------------------------------
(PID.TID 0000.0001)     58 --------------------------------------------------------------------------------------------------------------------------------
(PID.TID 0000.0001)     57 --------------------------------------------------------------------------------------------------------------------------------
(PID.TID 0000.0001)     56 --------------------------------------------------------------------------------------------------------------------------------
(PID.TID 0000.0001)     55 --------------------------------------------------------------------------------------------------------------------------------
(PID.TID 0000.0001)     54 --------------------------------------------------------------------------------------------------------------------------------
(PID.TID 0000.0001)     53 --------------------------------------------------------------------------------------------------------------------------------
(PID.TID 0000.0001)     52 --------------------------------------------------------------------------------------------------------------------------------
(PID.TID 0000.0001)     51 --------------------------------------------------------------------------------------------------------------------------------
(PID.TID 0000.0001)     50 --------------------------------------------------------------------------------------------------------------------------------
(PID.TID 0000.0001)     49 --------------------------------------------------------------------------------------------------------------------------------
(PID.TID 0000.0001)     48 --------------------------------------------------------------------------------------------------------------------------------
(PID.TID 0000.0001)     47 --------------------------------------------------------------------------------------------------------------------------------
(PID.TID 0000.0001)     46 --------------------------------------------------------------------------------------------------------------------------------
(PID.TID 0000.0001)     45 --------------------------------------------------------------------------------------------------------------------------------
(PID.TID 0000.0001)     44 --------------------------------------------------------------------------------------------------------------------------------
(PID.TID 0000.0001)     43 --------------------------------------------------------------------------------------------------------------------------------
(PID.TID 0000.0001)     42 --------------------------------------------------------------------------------------------------------------------------------
(PID.TID 0000.0001)     41 --------------------------------------------------------------------------------------------------------------------------------
(PID.TID 0000.0001)     40 --------------------------------------------------------------------------------------------------------------------------------
(PID.TID 0000.0001)     39 --------------------------------------------------------------------------------------------------------------------------------
(PID.TID 0000.0001)     38 --------------------------------------------------------------------------------------------------------------------------------
(PID.TID 0000.0001)     37 --------------------------------------------------------------------------------------------------------------------------------
(PID.TID 0000.0001)     36 --------------------------------------------------------------------------------------------------------------------------------
(PID.TID 0000.0001)     35 --------------------------------------------------------------------------------------------------------------------------------
(PID.TID 0000.0001)     34 --------------------------------------------------------------------------------------------------------------------------------
(PID.TID 0000.0001)     33 --------------------------------------------------------------------------------------------------------------------------------
(PID.TID 0000.0001)     32 --------------------------------------------------------------------------------------------------------------------------------
(PID.TID 0000.0001)     31 --------------------------------------------------------------------------------------------------------------------------------
(PID.TID 0000.0001)     30 --------------------------------------------------------------------------------------------------------------------------------
(PID.TID 0000.0001)     29 --------------------------------------------------------------------------------------------------------------------------------
(PID.TID 0000.0001)     28 --------------------------------------------------------------------------------------------------------------------------------
(PID.TID 0000.0001)     27 --------------------------------------------------------------------------------------------------------------------------------
(PID.TID 0000.0001)     26 --------------------------------------------------------------------------------------------------------------------------------
(PID.TID 0000.0001)     25 --------------------------------------------------------------------------------------------------------------------------------
(PID.TID 0000.0001)     24 --------------------------------------------------------------------------------------------------------------------------------
(PID.TID 0000.0001)     23 --------------------------------------------------------------------------------------------------------------------------------
(PID.TID 0000.0001)     22 --------------------------------------------------------------------------------------------------------------------------------
(PID.TID 0000.0001)     21 --------------------------------------------------------------------------------------------------------------------------------
(PID.TID 0000.0001)     20 --------------------------------------------------------------------------------------------------------------------------------
(PID.TID 0000.0001)     19 --------------------------------------------------------------------------------------------------------------------------------
(PID.TID 0000.0001)     18 --------------------------------------------------------------------------------------------------------------------------------
(PID.TID 0000.0001)     17 --------------------------------------------------------------------------------------------------------------------------------
(PID.TID 0000.0001)     16 --------------------------------------------------------------------------------------------------------------------------------
(PID.TID 0000.0001)     15 --------------------------------------------------------------------------------------------------------------------------------
(PID.TID 0000.0001)     14 --------------------------------------------------------------------------------------------------------------------------------
(PID.TID 0000.0001)     13 --------------------------------------------------------------------------------------------------------------------------------
(PID.TID 0000.0001)     12 --------------------------------------------------------------------------------------------------------------------------------
(PID.TID 0000.0001)     11 --------------------------------------------------------------------------------------------------------------------------------
(PID.TID 0000.0001)     10 --------------------------------------------------------------------------------------------------------------------------------
(PID.TID 0000.0001)      9 --------------------------------------------------------------------------------------------------------------------------------
(PID.TID 0000.0001)      8 --------------------------------------------------------------------------------------------------------------------------------
(PID.TID 0000.0001)      7 --------------------------------------------------------------------------------------------------------------------------------
(PID.TID 0000.0001)      6 --------------------------------------------------------------------------------------------------------------------------------
(PID.TID 0000.0001)      5 --------------------------------------------------------------------------------------------------------------------------------
(PID.TID 0000.0001)      4 --------------------------------------------------------------------------------------------------------------------------------
(PID.TID 0000.0001)      3 --------------------------------------------------------------------------------------------------------------------------------
(PID.TID 0000.0001)      2 --------------------------------------------------------------------------------------------------------------------------------
(PID.TID 0000.0001)      1 --------------------------------------------------------------------------------------------------------------------------------
(PID.TID 0000.0001) // =======================================================
(PID.TID 0000.0001) // END OF FIELD                                          =
(PID.TID 0000.0001) // =======================================================
(PID.TID 0000.0001) 
(PID.TID 0000.0001) // =======================================================
(PID.TID 0000.0001) // Field Initial Salinity at iteration          1
(PID.TID 0000.0001) // CMIN =          1.000000000000000E+32
(PID.TID 0000.0001) // CMAX =         -1.000000000000000E+32
(PID.TID 0000.0001) // CINT =          0.000000000000000E+00
(PID.TID 0000.0001) // SYMBOLS (CMIN->CMAX): -abcdefghijklmnopqrstuvwxyz+
(PID.TID 0000.0001) //                  0.0: .
(PID.TID 0000.0001) // RANGE I (Lo:Hi:Step):(   1: 128:   1)
(PID.TID 0000.0001) // RANGE J (Lo:Hi:Step):(  64:   1:  -1)
(PID.TID 0000.0001) // RANGE K (Lo:Hi:Step):(   1:   1:   1)
(PID.TID 0000.0001) // =======================================================
(PID.TID 0000.0001) K =   1
(PID.TID 0000.0001)                I=10      I=20      I=30      I=40      I=50      I=60      I=70      I=80      I=90      I=100     I=110     I=120
(PID.TID 0000.0001) |--J--|123456789|123456789|123456789|123456789|123456789|123456789|123456789|123456789|123456789|123456789|123456789|123456789|12345678
(PID.TID 0000.0001)     64 ................................................................................................................................
(PID.TID 0000.0001)     63 ................................................................................................................................
(PID.TID 0000.0001)     62 ................................................................................................................................
(PID.TID 0000.0001)     61 ................................................................................................................................
(PID.TID 0000.0001)     60 ................................................................................................................................
(PID.TID 0000.0001)     59 ................................................................................................................................
(PID.TID 0000.0001)     58 ................................................................................................................................
(PID.TID 0000.0001)     57 ................................................................................................................................
(PID.TID 0000.0001)     56 ................................................................................................................................
(PID.TID 0000.0001)     55 ................................................................................................................................
(PID.TID 0000.0001)     54 ................................................................................................................................
(PID.TID 0000.0001)     53 ................................................................................................................................
(PID.TID 0000.0001)     52 ................................................................................................................................
(PID.TID 0000.0001)     51 ................................................................................................................................
(PID.TID 0000.0001)     50 ................................................................................................................................
(PID.TID 0000.0001)     49 ................................................................................................................................
(PID.TID 0000.0001)     48 ................................................................................................................................
(PID.TID 0000.0001)     47 ................................................................................................................................
(PID.TID 0000.0001)     46 ................................................................................................................................
(PID.TID 0000.0001)     45 ................................................................................................................................
(PID.TID 0000.0001)     44 ................................................................................................................................
(PID.TID 0000.0001)     43 ................................................................................................................................
(PID.TID 0000.0001)     42 ................................................................................................................................
(PID.TID 0000.0001)     41 ................................................................................................................................
(PID.TID 0000.0001)     40 ................................................................................................................................
(PID.TID 0000.0001)     39 ................................................................................................................................
(PID.TID 0000.0001)     38 ................................................................................................................................
(PID.TID 0000.0001)     37 ................................................................................................................................
(PID.TID 0000.0001)     36 ................................................................................................................................
(PID.TID 0000.0001)     35 ................................................................................................................................
(PID.TID 0000.0001)     34 ................................................................................................................................
(PID.TID 0000.0001)     33 ................................................................................................................................
(PID.TID 0000.0001)     32 ................................................................................................................................
(PID.TID 0000.0001)     31 ................................................................................................................................
(PID.TID 0000.0001)     30 ................................................................................................................................
(PID.TID 0000.0001)     29 ................................................................................................................................
(PID.TID 0000.0001)     28 ................................................................................................................................
(PID.TID 0000.0001)     27 ................................................................................................................................
(PID.TID 0000.0001)     26 ................................................................................................................................
(PID.TID 0000.0001)     25 ................................................................................................................................
(PID.TID 0000.0001)     24 ................................................................................................................................
(PID.TID 0000.0001)     23 ................................................................................................................................
(PID.TID 0000.0001)     22 ................................................................................................................................
(PID.TID 0000.0001)     21 ................................................................................................................................
(PID.TID 0000.0001)     20 ................................................................................................................................
(PID.TID 0000.0001)     19 ................................................................................................................................
(PID.TID 0000.0001)     18 ................................................................................................................................
(PID.TID 0000.0001)     17 ................................................................................................................................
(PID.TID 0000.0001)     16 ................................................................................................................................
(PID.TID 0000.0001)     15 ................................................................................................................................
(PID.TID 0000.0001)     14 ................................................................................................................................
(PID.TID 0000.0001)     13 ................................................................................................................................
(PID.TID 0000.0001)     12 ................................................................................................................................
(PID.TID 0000.0001)     11 ................................................................................................................................
(PID.TID 0000.0001)     10 ................................................................................................................................
(PID.TID 0000.0001)      9 ................................................................................................................................
(PID.TID 0000.0001)      8 ................................................................................................................................
(PID.TID 0000.0001)      7 ................................................................................................................................
(PID.TID 0000.0001)      6 ................................................................................................................................
(PID.TID 0000.0001)      5 ................................................................................................................................
(PID.TID 0000.0001)      4 ................................................................................................................................
(PID.TID 0000.0001)      3 ................................................................................................................................
(PID.TID 0000.0001)      2 ................................................................................................................................
(PID.TID 0000.0001)      1 ................................................................................................................................
(PID.TID 0000.0001) // =======================================================
(PID.TID 0000.0001) // END OF FIELD                                          =
(PID.TID 0000.0001) // =======================================================
(PID.TID 0000.0001) 
(PID.TID 0000.0001)  MDSREADFIELD: opening global file: ps.init
(PID.TID 0000.0001) Start initial hydrostatic pressure computation
(PID.TID 0000.0001) Pressure is predetermined for buoyancyRelation ATMOSPHERIC
(PID.TID 0000.0001) 
(PID.TID 0000.0001) // =======================================================
(PID.TID 0000.0001) // Model current state
(PID.TID 0000.0001) // =======================================================
(PID.TID 0000.0001) 
(PID.TID 0000.0001) // =======================================================
(PID.TID 0000.0001) // Begin MONITOR dynamic field statistics
(PID.TID 0000.0001) // =======================================================
(PID.TID 0000.0001) %MON time_tsnumber                =                     0
(PID.TID 0000.0001) %MON time_secondsf                =   0.0000000000000E+00
(PID.TID 0000.0001) %MON dynstat_eta_max              =   1.0000000000000E+02
(PID.TID 0000.0001) %MON dynstat_eta_min              =   0.0000000000000E+00
(PID.TID 0000.0001) %MON dynstat_eta_mean             =   2.0319026122791E+00
(PID.TID 0000.0001) %MON dynstat_eta_sd               =   1.0722903482171E+01
(PID.TID 0000.0001) %MON dynstat_eta_del2             =   1.1470193066062E-01
(PID.TID 0000.0001) %MON dynstat_uvel_max             =   0.0000000000000E+00
(PID.TID 0000.0001) %MON dynstat_uvel_min             =   0.0000000000000E+00
(PID.TID 0000.0001) %MON dynstat_uvel_mean            =   0.0000000000000E+00
(PID.TID 0000.0001) %MON dynstat_uvel_sd              =   0.0000000000000E+00
(PID.TID 0000.0001) %MON dynstat_uvel_del2            =   0.0000000000000E+00
(PID.TID 0000.0001) %MON dynstat_vvel_max             =   0.0000000000000E+00
(PID.TID 0000.0001) %MON dynstat_vvel_min             =   0.0000000000000E+00
(PID.TID 0000.0001) %MON dynstat_vvel_mean            =   0.0000000000000E+00
(PID.TID 0000.0001) %MON dynstat_vvel_sd              =   0.0000000000000E+00
(PID.TID 0000.0001) %MON dynstat_vvel_del2            =   0.0000000000000E+00
(PID.TID 0000.0001) %MON dynstat_wvel_max             =   0.0000000000000E+00
(PID.TID 0000.0001) %MON dynstat_wvel_min             =   0.0000000000000E+00
(PID.TID 0000.0001) %MON dynstat_wvel_mean            =   0.0000000000000E+00
(PID.TID 0000.0001) %MON dynstat_wvel_sd              =   0.0000000000000E+00
(PID.TID 0000.0001) %MON dynstat_wvel_del2            =   0.0000000000000E+00
(PID.TID 0000.0001) %MON dynstat_theta_max            =   3.0000000000000E+02
(PID.TID 0000.0001) %MON dynstat_theta_min            =   3.0000000000000E+02
(PID.TID 0000.0001) %MON dynstat_theta_mean           =   3.0000000000000E+02
(PID.TID 0000.0001) %MON dynstat_theta_sd             =   2.0463630789891E-12
(PID.TID 0000.0001) %MON dynstat_theta_del2           =   0.0000000000000E+00
(PID.TID 0000.0001) %MON dynstat_salt_max             =   0.0000000000000E+00
(PID.TID 0000.0001) %MON dynstat_salt_min             =   0.0000000000000E+00
(PID.TID 0000.0001) %MON dynstat_salt_mean            =   0.0000000000000E+00
(PID.TID 0000.0001) %MON dynstat_salt_sd              =   0.0000000000000E+00
(PID.TID 0000.0001) %MON dynstat_salt_del2            =   0.0000000000000E+00
(PID.TID 0000.0001) %MON advcfl_uvel_max              =   0.0000000000000E+00
(PID.TID 0000.0001) %MON advcfl_vvel_max              =   0.0000000000000E+00
(PID.TID 0000.0001) %MON advcfl_wvel_max              =   0.0000000000000E+00
(PID.TID 0000.0001) %MON advcfl_W_hf_max              =   0.0000000000000E+00
(PID.TID 0000.0001) %MON pe_b_mean                    =   5.9554643656868E-04
(PID.TID 0000.0001) %MON ke_max                       =   0.0000000000000E+00
(PID.TID 0000.0001) %MON ke_mean                      =   0.0000000000000E+00
(PID.TID 0000.0001) %MON ke_vol                       =   5.0990436378178E+19
(PID.TID 0000.0001) %MON vort_r_min                   =   0.0000000000000E+00
(PID.TID 0000.0001) %MON vort_r_max                   =   0.0000000000000E+00
(PID.TID 0000.0001) %MON vort_a_mean                  =  -2.4804158231269E-21
(PID.TID 0000.0001) %MON vort_a_sd                    =   8.3955319514375E-05
(PID.TID 0000.0001) %MON vort_p_mean                  =  -2.4804158231269E-21
(PID.TID 0000.0001) %MON vort_p_sd                    =   8.3955319514375E-05
(PID.TID 0000.0001) %MON surfExpan_theta_mean         =   0.0000000000000E+00
(PID.TID 0000.0001) %MON surfExpan_salt_mean          =   0.0000000000000E+00
(PID.TID 0000.0001) %MON surfExpan_Heat_mean          =   0.0000000000000E+00
(PID.TID 0000.0001) %MON En_Budget_T2PE_mean          =   0.0000000000000E+00
(PID.TID 0000.0001) // =======================================================
(PID.TID 0000.0001) // End MONITOR dynamic field statistics
(PID.TID 0000.0001) // =======================================================
 cg2d: Sum(rhs),rhsMax =  -7.74071078842747E+02  1.62211652220296E+00
(PID.TID 0000.0001)                    cg2d_init_res =    5.11962605489926E-01
(PID.TID 0000.0001)                       cg2d_iters =    25
(PID.TID 0000.0001)                         cg2d_res =    1.23249674526565E-13
(PID.TID 0000.0001) // =======================================================
(PID.TID 0000.0001) // Begin MONITOR dynamic field statistics
(PID.TID 0000.0001) // =======================================================
(PID.TID 0000.0001) %MON time_tsnumber                =                     1
(PID.TID 0000.0001) %MON time_secondsf                =   4.5000000000000E+02
(PID.TID 0000.0001) %MON dynstat_eta_max              =   9.8268242418185E+01
(PID.TID 0000.0001) %MON dynstat_eta_min              =  -5.8827151656409E-14
(PID.TID 0000.0001) %MON dynstat_eta_mean             =   2.0319026122790E+00
(PID.TID 0000.0001) %MON dynstat_eta_sd               =   1.0585197068558E+01
(PID.TID 0000.0001) %MON dynstat_eta_del2             =   1.1189589826507E-01
(PID.TID 0000.0001) %MON dynstat_uvel_max             =   0.0000000000000E+00
(PID.TID 0000.0001) %MON dynstat_uvel_min             =   0.0000000000000E+00
(PID.TID 0000.0001) %MON dynstat_uvel_mean            =   0.0000000000000E+00
(PID.TID 0000.0001) %MON dynstat_uvel_sd              =   0.0000000000000E+00
(PID.TID 0000.0001) %MON dynstat_uvel_del2            =   0.0000000000000E+00
(PID.TID 0000.0001) %MON dynstat_vvel_max             =   9.5779814426987E-17
(PID.TID 0000.0001) %MON dynstat_vvel_min             =  -2.0612341037939E-02
(PID.TID 0000.0001) %MON dynstat_vvel_mean            =  -9.0366217274834E-04
(PID.TID 0000.0001) %MON dynstat_vvel_sd              =   3.6990430454405E-03
(PID.TID 0000.0001) %MON dynstat_vvel_del2            =   8.6273006202235E-05
(PID.TID 0000.0001) %MON dynstat_wvel_max             =   1.4969124717167E-03
(PID.TID 0000.0001) %MON dynstat_wvel_min             =  -3.8483501818114E-03
(PID.TID 0000.0001) %MON dynstat_wvel_mean            =   2.3124405137173E-19
(PID.TID 0000.0001) %MON dynstat_wvel_sd              =   4.1538005937670E-04
(PID.TID 0000.0001) %MON dynstat_wvel_del2            =   1.3578976905898E-05
(PID.TID 0000.0001) %MON dynstat_theta_max            =   3.0000000000000E+02
(PID.TID 0000.0001) %MON dynstat_theta_min            =   3.0000000000000E+02
(PID.TID 0000.0001) %MON dynstat_theta_mean           =   3.0000000000000E+02
(PID.TID 0000.0001) %MON dynstat_theta_sd             =   2.0463630789891E-12
(PID.TID 0000.0001) %MON dynstat_theta_del2           =   0.0000000000000E+00
(PID.TID 0000.0001) %MON dynstat_salt_max             =   0.0000000000000E+00
(PID.TID 0000.0001) %MON dynstat_salt_min             =   0.0000000000000E+00
(PID.TID 0000.0001) %MON dynstat_salt_mean            =   0.0000000000000E+00
(PID.TID 0000.0001) %MON dynstat_salt_sd              =   0.0000000000000E+00
(PID.TID 0000.0001) %MON dynstat_salt_del2            =   0.0000000000000E+00
(PID.TID 0000.0001) %MON advcfl_uvel_max              =   0.0000000000000E+00
(PID.TID 0000.0001) %MON advcfl_vvel_max              =   2.9664053936784E-05
(PID.TID 0000.0001) %MON advcfl_wvel_max              =   3.4635151636303E-05
(PID.TID 0000.0001) %MON advcfl_W_hf_max              =   0.0000000000000E+00
(PID.TID 0000.0001) %MON pe_b_mean                    =   5.8087512603000E-04
(PID.TID 0000.0001) %MON ke_max                       =   2.0893797387818E-04
(PID.TID 0000.0001) %MON ke_mean                      =   7.2483065937736E-06
(PID.TID 0000.0001) %MON ke_vol                       =   5.0990436378178E+19
(PID.TID 0000.0001) %MON vort_r_min                   =   0.0000000000000E+00
(PID.TID 0000.0001) %MON vort_r_max                   =   0.0000000000000E+00
(PID.TID 0000.0001) %MON vort_a_mean                  =  -2.4804158231269E-21
(PID.TID 0000.0001) %MON vort_a_sd                    =   8.3955319514375E-05
(PID.TID 0000.0001) %MON vort_p_mean                  =  -2.4804158231269E-21
(PID.TID 0000.0001) %MON vort_p_sd                    =   8.3955319514375E-05
(PID.TID 0000.0001) %MON surfExpan_theta_mean         =  -1.8425264020876E-16
(PID.TID 0000.0001) %MON surfExpan_salt_mean          =   0.0000000000000E+00
(PID.TID 0000.0001) %MON surfExpan_Heat_mean          =  -8.5595566310282E-15
(PID.TID 0000.0001) %MON En_Budget_T2PE_mean          =   0.0000000000000E+00
(PID.TID 0000.0001) // =======================================================
(PID.TID 0000.0001) // End MONITOR dynamic field statistics
(PID.TID 0000.0001) // =======================================================
 cg2d: Sum(rhs),rhsMax =  -7.95372548974674E+02  1.57867340024364E+00
(PID.TID 0000.0001)                    cg2d_init_res =    9.90773373033409E-01
(PID.TID 0000.0001)                       cg2d_iters =    25
(PID.TID 0000.0001)                         cg2d_res =    1.14049850532303E-13
(PID.TID 0000.0001) // =======================================================
(PID.TID 0000.0001) // Begin MONITOR dynamic field statistics
(PID.TID 0000.0001) // =======================================================
(PID.TID 0000.0001) %MON time_tsnumber                =                     2
(PID.TID 0000.0001) %MON time_secondsf                =   9.0000000000000E+02
(PID.TID 0000.0001) %MON dynstat_eta_max              =   9.4886559028131E+01
(PID.TID 0000.0001) %MON dynstat_eta_min              =  -3.0458576741963E-15
(PID.TID 0000.0001) %MON dynstat_eta_mean             =   2.0319026122790E+00
(PID.TID 0000.0001) %MON dynstat_eta_sd               =   1.0320437473207E+01
(PID.TID 0000.0001) %MON dynstat_eta_del2             =   1.0640854308434E-01
(PID.TID 0000.0001) %MON dynstat_uvel_max             =   0.0000000000000E+00
(PID.TID 0000.0001) %MON dynstat_uvel_min             =   0.0000000000000E+00
(PID.TID 0000.0001) %MON dynstat_uvel_mean            =   0.0000000000000E+00
(PID.TID 0000.0001) %MON dynstat_uvel_sd              =   0.0000000000000E+00
(PID.TID 0000.0001) %MON dynstat_uvel_del2            =   0.0000000000000E+00
(PID.TID 0000.0001) %MON dynstat_vvel_max             =   1.0866168594432E-16
(PID.TID 0000.0001) %MON dynstat_vvel_min             =  -4.0213856494824E-02
(PID.TID 0000.0001) %MON dynstat_vvel_mean            =  -1.7885452207547E-03
(PID.TID 0000.0001) %MON dynstat_vvel_sd              =   7.2223193070310E-03
(PID.TID 0000.0001) %MON dynstat_vvel_del2            =   1.6389090979091E-04
(PID.TID 0000.0001) %MON dynstat_wvel_max             =   2.7279279418777E-03
(PID.TID 0000.0001) %MON dynstat_wvel_min             =  -7.5148519778979E-03
(PID.TID 0000.0001) %MON dynstat_wvel_mean            =   8.9835805098434E-19
(PID.TID 0000.0001) %MON dynstat_wvel_sd              =   7.9921642205668E-04
(PID.TID 0000.0001) %MON dynstat_wvel_del2            =   2.3858215181043E-05
(PID.TID 0000.0001) %MON dynstat_theta_max            =   3.0000000000000E+02
(PID.TID 0000.0001) %MON dynstat_theta_min            =   3.0000000000000E+02
(PID.TID 0000.0001) %MON dynstat_theta_mean           =   3.0000000000000E+02
(PID.TID 0000.0001) %MON dynstat_theta_sd             =   2.0463630789891E-12
(PID.TID 0000.0001) %MON dynstat_theta_del2           =   0.0000000000000E+00
(PID.TID 0000.0001) %MON dynstat_salt_max             =   0.0000000000000E+00
(PID.TID 0000.0001) %MON dynstat_salt_min             =   0.0000000000000E+00
(PID.TID 0000.0001) %MON dynstat_salt_mean            =   0.0000000000000E+00
(PID.TID 0000.0001) %MON dynstat_salt_sd              =   0.0000000000000E+00
(PID.TID 0000.0001) %MON dynstat_salt_del2            =   0.0000000000000E+00
(PID.TID 0000.0001) %MON advcfl_uvel_max              =   0.0000000000000E+00
(PID.TID 0000.0001) %MON advcfl_vvel_max              =   5.7873387883156E-05
(PID.TID 0000.0001) %MON advcfl_wvel_max              =   6.7633667801081E-05
(PID.TID 0000.0001) %MON advcfl_W_hf_max              =   0.0000000000000E+00
(PID.TID 0000.0001) %MON pe_b_mean                    =   5.5320028932085E-04
(PID.TID 0000.0001) %MON ke_max                       =   7.9478437867636E-04
(PID.TID 0000.0001) %MON ke_mean                      =   2.7674836709142E-05
(PID.TID 0000.0001) %MON ke_vol                       =   5.0990436378178E+19
(PID.TID 0000.0001) %MON vort_r_min                   =   0.0000000000000E+00
(PID.TID 0000.0001) %MON vort_r_max                   =   0.0000000000000E+00
(PID.TID 0000.0001) %MON vort_a_mean                  =  -2.4804158231269E-21
(PID.TID 0000.0001) %MON vort_a_sd                    =   8.3955319514375E-05
(PID.TID 0000.0001) %MON vort_p_mean                  =  -2.4804158231269E-21
(PID.TID 0000.0001) %MON vort_p_sd                    =   8.3955319514375E-05
(PID.TID 0000.0001) %MON surfExpan_theta_mean         =   3.7850390615528E-16
(PID.TID 0000.0001) %MON surfExpan_salt_mean          =   0.0000000000000E+00
(PID.TID 0000.0001) %MON surfExpan_Heat_mean          =   2.2152846425770E-14
(PID.TID 0000.0001) %MON En_Budget_T2PE_mean          =   0.0000000000000E+00
(PID.TID 0000.0001) // =======================================================
(PID.TID 0000.0001) // End MONITOR dynamic field statistics
(PID.TID 0000.0001) // =======================================================
 cg2d: Sum(rhs),rhsMax =  -8.28398302729005E+02  1.51573643042708E+00
(PID.TID 0000.0001)                    cg2d_init_res =    1.44599361080144E+00
(PID.TID 0000.0001)                       cg2d_iters =    24
(PID.TID 0000.0001)                         cg2d_res =    8.31741024822961E-13
(PID.TID 0000.0001) // =======================================================
(PID.TID 0000.0001) // Begin MONITOR dynamic field statistics
(PID.TID 0000.0001) // =======================================================
(PID.TID 0000.0001) %MON time_tsnumber                =                     3
(PID.TID 0000.0001) %MON time_secondsf                =   1.3500000000000E+03
(PID.TID 0000.0001) %MON dynstat_eta_max              =   8.9974154976389E+01
(PID.TID 0000.0001) %MON dynstat_eta_min              =  -5.3113732084604E-15
(PID.TID 0000.0001) %MON dynstat_eta_mean             =   2.0319026122790E+00
(PID.TID 0000.0001) %MON dynstat_eta_sd               =   9.9452357208095E+00
(PID.TID 0000.0001) %MON dynstat_eta_del2             =   9.8425966089170E-02
(PID.TID 0000.0001) %MON dynstat_uvel_max             =   0.0000000000000E+00
(PID.TID 0000.0001) %MON dynstat_uvel_min             =   0.0000000000000E+00
(PID.TID 0000.0001) %MON dynstat_uvel_mean            =   0.0000000000000E+00
(PID.TID 0000.0001) %MON dynstat_uvel_sd              =   0.0000000000000E+00
(PID.TID 0000.0001) %MON dynstat_uvel_del2            =   0.0000000000000E+00
(PID.TID 0000.0001) %MON dynstat_vvel_max             =   7.9166593282496E-18
(PID.TID 0000.0001) %MON dynstat_vvel_min             =  -5.8344901613319E-02
(PID.TID 0000.0001) %MON dynstat_vvel_mean            =  -2.6460687679306E-03
(PID.TID 0000.0001) %MON dynstat_vvel_sd              =   1.0499900707635E-02
(PID.TID 0000.0001) %MON dynstat_vvel_del2            =   2.3066048885965E-04
(PID.TID 0000.0001) %MON dynstat_wvel_max             =   3.6418065891645E-03
(PID.TID 0000.0001) %MON dynstat_wvel_min             =  -1.0916453448314E-02
(PID.TID 0000.0001) %MON dynstat_wvel_mean            =   2.5777486658796E-18
(PID.TID 0000.0001) %MON dynstat_wvel_sd              =   1.1429099887899E-03
(PID.TID 0000.0001) %MON dynstat_wvel_del2            =   3.0895759193297E-05
(PID.TID 0000.0001) %MON dynstat_theta_max            =   3.0000000000000E+02
(PID.TID 0000.0001) %MON dynstat_theta_min            =   3.0000000000000E+02
(PID.TID 0000.0001) %MON dynstat_theta_mean           =   3.0000000000000E+02
(PID.TID 0000.0001) %MON dynstat_theta_sd             =   2.0463630789891E-12
(PID.TID 0000.0001) %MON dynstat_theta_del2           =   0.0000000000000E+00
(PID.TID 0000.0001) %MON dynstat_salt_max             =   0.0000000000000E+00
(PID.TID 0000.0001) %MON dynstat_salt_min             =   0.0000000000000E+00
(PID.TID 0000.0001) %MON dynstat_salt_mean            =   0.0000000000000E+00
(PID.TID 0000.0001) %MON dynstat_salt_sd              =   0.0000000000000E+00
(PID.TID 0000.0001) %MON dynstat_salt_del2            =   0.0000000000000E+00
(PID.TID 0000.0001) %MON advcfl_uvel_max              =   0.0000000000000E+00
(PID.TID 0000.0001) %MON advcfl_vvel_max              =   8.3966508472194E-05
(PID.TID 0000.0001) %MON advcfl_wvel_max              =   9.8248081034824E-05
(PID.TID 0000.0001) %MON advcfl_W_hf_max              =   0.0000000000000E+00
(PID.TID 0000.0001) %MON pe_b_mean                    =   5.1518170884126E-04
(PID.TID 0000.0001) %MON ke_max                       =   1.6717716232066E-03
(PID.TID 0000.0001) %MON ke_mean                      =   5.8613025205104E-05
(PID.TID 0000.0001) %MON ke_vol                       =   5.0990436378178E+19
(PID.TID 0000.0001) %MON vort_r_min                   =   0.0000000000000E+00
(PID.TID 0000.0001) %MON vort_r_max                   =   0.0000000000000E+00
(PID.TID 0000.0001) %MON vort_a_mean                  =  -2.4804158231269E-21
(PID.TID 0000.0001) %MON vort_a_sd                    =   8.3955319514375E-05
(PID.TID 0000.0001) %MON vort_p_mean                  =  -2.4804158231269E-21
(PID.TID 0000.0001) %MON vort_p_sd                    =   8.3955319514375E-05
(PID.TID 0000.0001) %MON surfExpan_theta_mean         =   1.2663354882199E-15
(PID.TID 0000.0001) %MON surfExpan_salt_mean          =   0.0000000000000E+00
(PID.TID 0000.0001) %MON surfExpan_Heat_mean          =  -2.0513737017805E-14
(PID.TID 0000.0001) %MON En_Budget_T2PE_mean          =   0.0000000000000E+00
(PID.TID 0000.0001) // =======================================================
(PID.TID 0000.0001) // End MONITOR dynamic field statistics
(PID.TID 0000.0001) // =======================================================
 cg2d: Sum(rhs),rhsMax =  -8.74747203487651E+02  1.43542440758198E+00
(PID.TID 0000.0001)                    cg2d_init_res =    1.89067864800137E+00
(PID.TID 0000.0001)                       cg2d_iters =    24
(PID.TID 0000.0001)                         cg2d_res =    3.91231834055173E-13
(PID.TID 0000.0001) // =======================================================
(PID.TID 0000.0001) // Begin MONITOR dynamic field statistics
(PID.TID 0000.0001) // =======================================================
(PID.TID 0000.0001) %MON time_tsnumber                =                     4
(PID.TID 0000.0001) %MON time_secondsf                =   1.8000000000000E+03
(PID.TID 0000.0001) %MON dynstat_eta_max              =   8.3684211066367E+01
(PID.TID 0000.0001) %MON dynstat_eta_min              =  -3.4319280543208E-15
(PID.TID 0000.0001) %MON dynstat_eta_mean             =   2.0319026122790E+00
(PID.TID 0000.0001) %MON dynstat_eta_sd               =   9.4809096965504E+00
(PID.TID 0000.0001) %MON dynstat_eta_del2             =   8.8197453545127E-02
(PID.TID 0000.0001) %MON dynstat_uvel_max             =   0.0000000000000E+00
(PID.TID 0000.0001) %MON dynstat_uvel_min             =   0.0000000000000E+00
(PID.TID 0000.0001) %MON dynstat_uvel_mean            =   0.0000000000000E+00
(PID.TID 0000.0001) %MON dynstat_uvel_sd              =   0.0000000000000E+00
(PID.TID 0000.0001) %MON dynstat_uvel_del2            =   0.0000000000000E+00
(PID.TID 0000.0001) %MON dynstat_vvel_max             =   8.8605153857414E-18
(PID.TID 0000.0001) %MON dynstat_vvel_min             =  -7.4591752653770E-02
(PID.TID 0000.0001) %MON dynstat_vvel_mean            =  -3.4684235270211E-03
(PID.TID 0000.0001) %MON dynstat_vvel_sd              =   1.3475837658968E-02
(PID.TID 0000.0001) %MON dynstat_vvel_del2            =   2.8709211958273E-04
(PID.TID 0000.0001) %MON dynstat_wvel_max             =   4.2367487840759E-03
(PID.TID 0000.0001) %MON dynstat_wvel_min             =  -1.3977653133381E-02
(PID.TID 0000.0001) %MON dynstat_wvel_mean            =   8.9463880207592E-19
(PID.TID 0000.0001) %MON dynstat_wvel_sd              =   1.4408913958376E-03
(PID.TID 0000.0001) %MON dynstat_wvel_del2            =   3.5320435576968E-05
(PID.TID 0000.0001) %MON dynstat_theta_max            =   3.0000000000000E+02
(PID.TID 0000.0001) %MON dynstat_theta_min            =   3.0000000000000E+02
(PID.TID 0000.0001) %MON dynstat_theta_mean           =   3.0000000000000E+02
(PID.TID 0000.0001) %MON dynstat_theta_sd             =   2.0463630789891E-12
(PID.TID 0000.0001) %MON dynstat_theta_del2           =   0.0000000000000E+00
(PID.TID 0000.0001) %MON dynstat_salt_max             =   0.0000000000000E+00
(PID.TID 0000.0001) %MON dynstat_salt_min             =   0.0000000000000E+00
(PID.TID 0000.0001) %MON dynstat_salt_mean            =   0.0000000000000E+00
(PID.TID 0000.0001) %MON dynstat_salt_sd              =   0.0000000000000E+00
(PID.TID 0000.0001) %MON dynstat_salt_del2            =   0.0000000000000E+00
(PID.TID 0000.0001) %MON advcfl_uvel_max              =   0.0000000000000E+00
(PID.TID 0000.0001) %MON advcfl_vvel_max              =   1.0734800913142E-04
(PID.TID 0000.0001) %MON advcfl_wvel_max              =   1.2579887820043E-04
(PID.TID 0000.0001) %MON advcfl_W_hf_max              =   0.0000000000000E+00
(PID.TID 0000.0001) %MON pe_b_mean                    =   4.7008138449965E-04
(PID.TID 0000.0001) %MON ke_max                       =   2.7302837547475E-03
(PID.TID 0000.0001) %MON ke_mean                      =   9.6794640369421E-05
(PID.TID 0000.0001) %MON ke_vol                       =   5.0990436378178E+19
(PID.TID 0000.0001) %MON vort_r_min                   =   0.0000000000000E+00
(PID.TID 0000.0001) %MON vort_r_max                   =   0.0000000000000E+00
(PID.TID 0000.0001) %MON vort_a_mean                  =  -2.4804158231269E-21
(PID.TID 0000.0001) %MON vort_a_sd                    =   8.3955319514375E-05
(PID.TID 0000.0001) %MON vort_p_mean                  =  -2.4804158231269E-21
(PID.TID 0000.0001) %MON vort_p_sd                    =   8.3955319514375E-05
(PID.TID 0000.0001) %MON surfExpan_theta_mean         =  -8.2592464006686E-16
(PID.TID 0000.0001) %MON surfExpan_salt_mean          =   0.0000000000000E+00
(PID.TID 0000.0001) %MON surfExpan_Heat_mean          =  -6.7591558848188E-16
(PID.TID 0000.0001) %MON En_Budget_T2PE_mean          =   0.0000000000000E+00
(PID.TID 0000.0001) // =======================================================
(PID.TID 0000.0001) // End MONITOR dynamic field statistics
(PID.TID 0000.0001) // =======================================================
 cg2d: Sum(rhs),rhsMax =  -9.36871163357924E+02  1.34024136451146E+00
(PID.TID 0000.0001)                    cg2d_init_res =    2.33846368964008E+00
(PID.TID 0000.0001)                       cg2d_iters =    24
(PID.TID 0000.0001)                         cg2d_res =    3.78362927944203E-13
(PID.TID 0000.0001) // =======================================================
(PID.TID 0000.0001) // Begin MONITOR dynamic field statistics
(PID.TID 0000.0001) // =======================================================
(PID.TID 0000.0001) %MON time_tsnumber                =                     5
(PID.TID 0000.0001) %MON time_secondsf                =   2.2500000000000E+03
(PID.TID 0000.0001) %MON dynstat_eta_max              =   7.6199805417942E+01
(PID.TID 0000.0001) %MON dynstat_eta_min              =  -1.9260154031060E-15
(PID.TID 0000.0001) %MON dynstat_eta_mean             =   2.0319026122790E+00
(PID.TID 0000.0001) %MON dynstat_eta_sd               =   8.9524215807003E+00
(PID.TID 0000.0001) %MON dynstat_eta_del2             =   7.6039001959266E-02
(PID.TID 0000.0001) %MON dynstat_uvel_max             =   0.0000000000000E+00
(PID.TID 0000.0001) %MON dynstat_uvel_min             =   0.0000000000000E+00
(PID.TID 0000.0001) %MON dynstat_uvel_mean            =   0.0000000000000E+00
(PID.TID 0000.0001) %MON dynstat_uvel_sd              =   0.0000000000000E+00
(PID.TID 0000.0001) %MON dynstat_uvel_del2            =   0.0000000000000E+00
(PID.TID 0000.0001) %MON dynstat_vvel_max             =   4.9621310793391E-18
(PID.TID 0000.0001) %MON dynstat_vvel_min             =  -8.8598895586356E-02
(PID.TID 0000.0001) %MON dynstat_vvel_mean            =  -4.2487179206557E-03
(PID.TID 0000.0001) %MON dynstat_vvel_sd              =   1.6108561800002E-02
(PID.TID 0000.0001) %MON dynstat_vvel_del2            =   3.3385340733344E-04
(PID.TID 0000.0001) %MON dynstat_wvel_max             =   4.5448462123958E-03
(PID.TID 0000.0001) %MON dynstat_wvel_min             =  -1.6632012552057E-02
(PID.TID 0000.0001) %MON dynstat_wvel_mean            =   2.0192548005594E-18
(PID.TID 0000.0001) %MON dynstat_wvel_sd              =   1.6896587367236E-03
(PID.TID 0000.0001) %MON dynstat_wvel_del2            =   3.7954013178970E-05
(PID.TID 0000.0001) %MON dynstat_theta_max            =   3.0000000000000E+02
(PID.TID 0000.0001) %MON dynstat_theta_min            =   3.0000000000000E+02
(PID.TID 0000.0001) %MON dynstat_theta_mean           =   3.0000000000000E+02
(PID.TID 0000.0001) %MON dynstat_theta_sd             =   2.0463630789891E-12
(PID.TID 0000.0001) %MON dynstat_theta_del2           =   0.0000000000000E+00
(PID.TID 0000.0001) %MON dynstat_salt_max             =   0.0000000000000E+00
(PID.TID 0000.0001) %MON dynstat_salt_min             =   0.0000000000000E+00
(PID.TID 0000.0001) %MON dynstat_salt_mean            =   0.0000000000000E+00
(PID.TID 0000.0001) %MON dynstat_salt_sd              =   0.0000000000000E+00
(PID.TID 0000.0001) %MON dynstat_salt_del2            =   0.0000000000000E+00
(PID.TID 0000.0001) %MON advcfl_uvel_max              =   0.0000000000000E+00
(PID.TID 0000.0001) %MON advcfl_vvel_max              =   1.2750625523688E-04
(PID.TID 0000.0001) %MON advcfl_wvel_max              =   1.4968811296852E-04
(PID.TID 0000.0001) %MON advcfl_W_hf_max              =   0.0000000000000E+00
(PID.TID 0000.0001) %MON pe_b_mean                    =   4.2137240192187E-04
(PID.TID 0000.0001) %MON ke_max                       =   3.8494233343854E-03
(PID.TID 0000.0001) %MON ke_mean                      =   1.3874081807703E-04
(PID.TID 0000.0001) %MON ke_vol                       =   5.0990436378178E+19
(PID.TID 0000.0001) %MON vort_r_min                   =   0.0000000000000E+00
(PID.TID 0000.0001) %MON vort_r_max                   =   0.0000000000000E+00
(PID.TID 0000.0001) %MON vort_a_mean                  =  -2.4804158231269E-21
(PID.TID 0000.0001) %MON vort_a_sd                    =   8.3955319514375E-05
(PID.TID 0000.0001) %MON vort_p_mean                  =  -2.4804158231269E-21
(PID.TID 0000.0001) %MON vort_p_sd                    =   8.3955319514375E-05
(PID.TID 0000.0001) %MON surfExpan_theta_mean         =  -5.4287338321061E-16
(PID.TID 0000.0001) %MON surfExpan_salt_mean          =   0.0000000000000E+00
(PID.TID 0000.0001) %MON surfExpan_Heat_mean          =   6.5531062665830E-14
(PID.TID 0000.0001) %MON En_Budget_T2PE_mean          =   0.0000000000000E+00
(PID.TID 0000.0001) // =======================================================
(PID.TID 0000.0001) // End MONITOR dynamic field statistics
(PID.TID 0000.0001) // =======================================================
 cg2d: Sum(rhs),rhsMax =  -1.01055310227488E+03  1.24252103479144E+00
(PID.TID 0000.0001)                    cg2d_init_res =    2.78267081727773E+00
(PID.TID 0000.0001)                       cg2d_iters =    24
(PID.TID 0000.0001)                         cg2d_res =    4.14403774681816E-13
(PID.TID 0000.0001) // =======================================================
(PID.TID 0000.0001) // Begin MONITOR dynamic field statistics
(PID.TID 0000.0001) // =======================================================
(PID.TID 0000.0001) %MON time_tsnumber                =                     6
(PID.TID 0000.0001) %MON time_secondsf                =   2.7000000000000E+03
(PID.TID 0000.0001) %MON dynstat_eta_max              =   6.7729234433822E+01
(PID.TID 0000.0001) %MON dynstat_eta_min              =  -4.7504114305992E-16
(PID.TID 0000.0001) %MON dynstat_eta_mean             =   2.0319026122790E+00
(PID.TID 0000.0001) %MON dynstat_eta_sd               =   8.3874081812307E+00
(PID.TID 0000.0001) %MON dynstat_eta_del2             =   6.2336202973169E-02
(PID.TID 0000.0001) %MON dynstat_uvel_max             =   0.0000000000000E+00
(PID.TID 0000.0001) %MON dynstat_uvel_min             =   0.0000000000000E+00
(PID.TID 0000.0001) %MON dynstat_uvel_mean            =   0.0000000000000E+00
(PID.TID 0000.0001) %MON dynstat_uvel_sd              =   0.0000000000000E+00
(PID.TID 0000.0001) %MON dynstat_uvel_del2            =   0.0000000000000E+00
(PID.TID 0000.0001) %MON dynstat_vvel_max             =   1.7265365148286E-18
(PID.TID 0000.0001) %MON dynstat_vvel_min             =  -1.0008184620935E-01
(PID.TID 0000.0001) %MON dynstat_vvel_mean            =  -4.9810989788083E-03
(PID.TID 0000.0001) %MON dynstat_vvel_sd              =   1.8370922912978E-02
(PID.TID 0000.0001) %MON dynstat_vvel_del2            =   3.6771430408668E-04
(PID.TID 0000.0001) %MON dynstat_wvel_max             =   4.6141856017714E-03
(PID.TID 0000.0001) %MON dynstat_wvel_min             =  -1.8823491075825E-02
(PID.TID 0000.0001) %MON dynstat_wvel_mean            =  -2.1322863795866E-18
(PID.TID 0000.0001) %MON dynstat_wvel_sd              =   1.8874462741782E-03
(PID.TID 0000.0001) %MON dynstat_wvel_del2            =   4.0985002501153E-05
(PID.TID 0000.0001) %MON dynstat_theta_max            =   3.0000000000000E+02
(PID.TID 0000.0001) %MON dynstat_theta_min            =   3.0000000000000E+02
(PID.TID 0000.0001) %MON dynstat_theta_mean           =   3.0000000000000E+02
(PID.TID 0000.0001) %MON dynstat_theta_sd             =   2.0463630789891E-12
(PID.TID 0000.0001) %MON dynstat_theta_del2           =   0.0000000000000E+00
(PID.TID 0000.0001) %MON dynstat_salt_max             =   0.0000000000000E+00
(PID.TID 0000.0001) %MON dynstat_salt_min             =   0.0000000000000E+00
(PID.TID 0000.0001) %MON dynstat_salt_mean            =   0.0000000000000E+00
(PID.TID 0000.0001) %MON dynstat_salt_sd              =   0.0000000000000E+00
(PID.TID 0000.0001) %MON dynstat_salt_del2            =   0.0000000000000E+00
(PID.TID 0000.0001) %MON advcfl_uvel_max              =   0.0000000000000E+00
(PID.TID 0000.0001) %MON advcfl_vvel_max              =   1.4403183406400E-04
(PID.TID 0000.0001) %MON advcfl_wvel_max              =   1.6941141968242E-04
(PID.TID 0000.0001) %MON advcfl_W_hf_max              =   0.0000000000000E+00
(PID.TID 0000.0001) %MON pe_b_mean                    =   3.7238622112182E-04
(PID.TID 0000.0001) %MON ke_max                       =   4.9106114923442E-03
(PID.TID 0000.0001) %MON ke_mean                      =   1.8111470169026E-04
(PID.TID 0000.0001) %MON ke_vol                       =   5.0990436378178E+19
(PID.TID 0000.0001) %MON vort_r_min                   =   0.0000000000000E+00
(PID.TID 0000.0001) %MON vort_r_max                   =   0.0000000000000E+00
(PID.TID 0000.0001) %MON vort_a_mean                  =  -2.4804158231269E-21
(PID.TID 0000.0001) %MON vort_a_sd                    =   8.3955319514375E-05
(PID.TID 0000.0001) %MON vort_p_mean                  =  -2.4804158231269E-21
(PID.TID 0000.0001) %MON vort_p_sd                    =   8.3955319514375E-05
(PID.TID 0000.0001) %MON surfExpan_theta_mean         =   3.7842909414078E-16
(PID.TID 0000.0001) %MON surfExpan_salt_mean          =   0.0000000000000E+00
(PID.TID 0000.0001) %MON surfExpan_Heat_mean          =  -8.0000742465870E-14
(PID.TID 0000.0001) %MON En_Budget_T2PE_mean          =   0.0000000000000E+00
(PID.TID 0000.0001) // =======================================================
(PID.TID 0000.0001) // End MONITOR dynamic field statistics
(PID.TID 0000.0001) // =======================================================
 cg2d: Sum(rhs),rhsMax =  -1.08011264218975E+03  1.16250235142577E+00
(PID.TID 0000.0001)                    cg2d_init_res =    3.17576950655021E+00
(PID.TID 0000.0001)                       cg2d_iters =    24
(PID.TID 0000.0001)                         cg2d_res =    3.00259514803015E-13
(PID.TID 0000.0001) // =======================================================
(PID.TID 0000.0001) // Begin MONITOR dynamic field statistics
(PID.TID 0000.0001) // =======================================================
(PID.TID 0000.0001) %MON time_tsnumber                =                     7
(PID.TID 0000.0001) %MON time_secondsf                =   3.1500000000000E+03
(PID.TID 0000.0001) %MON dynstat_eta_max              =   5.8500803208843E+01
(PID.TID 0000.0001) %MON dynstat_eta_min              =  -5.3952116302909E-17
(PID.TID 0000.0001) %MON dynstat_eta_mean             =   2.0319026122790E+00
(PID.TID 0000.0001) %MON dynstat_eta_sd               =   7.8151591345799E+00
(PID.TID 0000.0001) %MON dynstat_eta_del2             =   4.7542463906064E-02
(PID.TID 0000.0001) %MON dynstat_uvel_max             =   0.0000000000000E+00
(PID.TID 0000.0001) %MON dynstat_uvel_min             =   0.0000000000000E+00
(PID.TID 0000.0001) %MON dynstat_uvel_mean            =   0.0000000000000E+00
(PID.TID 0000.0001) %MON dynstat_uvel_sd              =   0.0000000000000E+00
(PID.TID 0000.0001) %MON dynstat_uvel_del2            =   0.0000000000000E+00
(PID.TID 0000.0001) %MON dynstat_vvel_max             =   9.3876791750700E-20
(PID.TID 0000.0001) %MON dynstat_vvel_min             =  -1.0883964247364E-01
(PID.TID 0000.0001) %MON dynstat_vvel_mean            =  -5.6608447328450E-03
(PID.TID 0000.0001) %MON dynstat_vvel_sd              =   2.0249897246144E-02
(PID.TID 0000.0001) %MON dynstat_vvel_del2            =   3.8866179422348E-04
(PID.TID 0000.0001) %MON dynstat_wvel_max             =   4.4939306157060E-03
(PID.TID 0000.0001) %MON dynstat_wvel_min             =  -2.0507624944397E-02
(PID.TID 0000.0001) %MON dynstat_wvel_mean            =  -3.4134734460583E-18
(PID.TID 0000.0001) %MON dynstat_wvel_sd              =   2.0341662850686E-03
(PID.TID 0000.0001) %MON dynstat_wvel_del2            =   4.2814170335229E-05
(PID.TID 0000.0001) %MON dynstat_theta_max            =   3.0000000000000E+02
(PID.TID 0000.0001) %MON dynstat_theta_min            =   3.0000000000000E+02
(PID.TID 0000.0001) %MON dynstat_theta_mean           =   3.0000000000000E+02
(PID.TID 0000.0001) %MON dynstat_theta_sd             =   2.0463630789891E-12
(PID.TID 0000.0001) %MON dynstat_theta_del2           =   0.0000000000000E+00
(PID.TID 0000.0001) %MON dynstat_salt_max             =   0.0000000000000E+00
(PID.TID 0000.0001) %MON dynstat_salt_min             =   0.0000000000000E+00
(PID.TID 0000.0001) %MON dynstat_salt_mean            =   0.0000000000000E+00
(PID.TID 0000.0001) %MON dynstat_salt_sd              =   0.0000000000000E+00
(PID.TID 0000.0001) %MON dynstat_salt_del2            =   0.0000000000000E+00
(PID.TID 0000.0001) %MON advcfl_uvel_max              =   0.0000000000000E+00
(PID.TID 0000.0001) %MON advcfl_vvel_max              =   1.5663553299724E-04
(PID.TID 0000.0001) %MON advcfl_wvel_max              =   1.8456862449957E-04
(PID.TID 0000.0001) %MON advcfl_W_hf_max              =   0.0000000000000E+00
(PID.TID 0000.0001) %MON pe_b_mean                    =   3.2602670262297E-04
(PID.TID 0000.0001) %MON ke_max                       =   5.8105120957772E-03
(PID.TID 0000.0001) %MON ke_mean                      =   2.2100736233726E-04
(PID.TID 0000.0001) %MON ke_vol                       =   5.0990436378178E+19
(PID.TID 0000.0001) %MON vort_r_min                   =   0.0000000000000E+00
(PID.TID 0000.0001) %MON vort_r_max                   =   0.0000000000000E+00
(PID.TID 0000.0001) %MON vort_a_mean                  =  -2.4804158231269E-21
(PID.TID 0000.0001) %MON vort_a_sd                    =   8.3955319514375E-05
(PID.TID 0000.0001) %MON vort_p_mean                  =  -2.4804158231269E-21
(PID.TID 0000.0001) %MON vort_p_sd                    =   8.3955319514375E-05
(PID.TID 0000.0001) %MON surfExpan_theta_mean         =   2.8152509176047E-16
(PID.TID 0000.0001) %MON surfExpan_salt_mean          =   0.0000000000000E+00
(PID.TID 0000.0001) %MON surfExpan_Heat_mean          =   1.4379876079363E-13
(PID.TID 0000.0001) %MON En_Budget_T2PE_mean          =   0.0000000000000E+00
(PID.TID 0000.0001) // =======================================================
(PID.TID 0000.0001) // End MONITOR dynamic field statistics
(PID.TID 0000.0001) // =======================================================
 cg2d: Sum(rhs),rhsMax =  -1.12997515565432E+03  1.11120450752141E+00
(PID.TID 0000.0001)                    cg2d_init_res =    3.46224936281269E+00
(PID.TID 0000.0001)                       cg2d_iters =    24
(PID.TID 0000.0001)                         cg2d_res =    2.70009141814169E-13
(PID.TID 0000.0001) // =======================================================
(PID.TID 0000.0001) // Begin MONITOR dynamic field statistics
(PID.TID 0000.0001) // =======================================================
(PID.TID 0000.0001) %MON time_tsnumber                =                     8
(PID.TID 0000.0001) %MON time_secondsf                =   3.6000000000000E+03
(PID.TID 0000.0001) %MON dynstat_eta_max              =   4.8757134497339E+01
(PID.TID 0000.0001) %MON dynstat_eta_min              =  -2.8490715344497E-23
(PID.TID 0000.0001) %MON dynstat_eta_mean             =   2.0319026122790E+00
(PID.TID 0000.0001) %MON dynstat_eta_sd               =   7.2653456010835E+00
(PID.TID 0000.0001) %MON dynstat_eta_del2             =   3.8032962883399E-02
(PID.TID 0000.0001) %MON dynstat_uvel_max             =   0.0000000000000E+00
(PID.TID 0000.0001) %MON dynstat_uvel_min             =   0.0000000000000E+00
(PID.TID 0000.0001) %MON dynstat_uvel_mean            =   0.0000000000000E+00
(PID.TID 0000.0001) %MON dynstat_uvel_sd              =   0.0000000000000E+00
(PID.TID 0000.0001) %MON dynstat_uvel_del2            =   0.0000000000000E+00
(PID.TID 0000.0001) %MON dynstat_vvel_max             =   6.2820875796955E-26
(PID.TID 0000.0001) %MON dynstat_vvel_min             =  -1.1476536957286E-01
(PID.TID 0000.0001) %MON dynstat_vvel_mean            =  -6.2844258592507E-03
(PID.TID 0000.0001) %MON dynstat_vvel_sd              =   2.1745938963785E-02
(PID.TID 0000.0001) %MON dynstat_vvel_del2            =   3.9731486191849E-04
(PID.TID 0000.0001) %MON dynstat_wvel_max             =   4.2544485098684E-03
(PID.TID 0000.0001) %MON dynstat_wvel_min             =  -2.1652597136676E-02
(PID.TID 0000.0001) %MON dynstat_wvel_mean            =  -7.9000825224418E-19
(PID.TID 0000.0001) %MON dynstat_wvel_sd              =   2.1313736300004E-03
(PID.TID 0000.0001) %MON dynstat_wvel_del2            =   4.3124226616147E-05
(PID.TID 0000.0001) %MON dynstat_theta_max            =   3.0000000000000E+02
(PID.TID 0000.0001) %MON dynstat_theta_min            =   3.0000000000000E+02
(PID.TID 0000.0001) %MON dynstat_theta_mean           =   3.0000000000000E+02
(PID.TID 0000.0001) %MON dynstat_theta_sd             =   2.0463630789891E-12
(PID.TID 0000.0001) %MON dynstat_theta_del2           =   0.0000000000000E+00
(PID.TID 0000.0001) %MON dynstat_salt_max             =   0.0000000000000E+00
(PID.TID 0000.0001) %MON dynstat_salt_min             =   0.0000000000000E+00
(PID.TID 0000.0001) %MON dynstat_salt_mean            =   0.0000000000000E+00
(PID.TID 0000.0001) %MON dynstat_salt_sd              =   0.0000000000000E+00
(PID.TID 0000.0001) %MON dynstat_salt_del2            =   0.0000000000000E+00
(PID.TID 0000.0001) %MON advcfl_uvel_max              =   0.0000000000000E+00
(PID.TID 0000.0001) %MON advcfl_vvel_max              =   1.6516348661310E-04
(PID.TID 0000.0001) %MON advcfl_wvel_max              =   1.9487337423008E-04
(PID.TID 0000.0001) %MON advcfl_W_hf_max              =   0.0000000000000E+00
(PID.TID 0000.0001) %MON pe_b_mean                    =   2.8456937464485E-04
(PID.TID 0000.0001) %MON ke_max                       =   6.4714405318063E-03
(PID.TID 0000.0001) %MON ke_mean                      =   2.5613849050446E-04
(PID.TID 0000.0001) %MON ke_vol                       =   5.0990436378178E+19
(PID.TID 0000.0001) %MON vort_r_min                   =   0.0000000000000E+00
(PID.TID 0000.0001) %MON vort_r_max                   =   0.0000000000000E+00
(PID.TID 0000.0001) %MON vort_a_mean                  =  -2.4804158231269E-21
(PID.TID 0000.0001) %MON vort_a_sd                    =   8.3955319514375E-05
(PID.TID 0000.0001) %MON vort_p_mean                  =  -2.4804158231269E-21
(PID.TID 0000.0001) %MON vort_p_sd                    =   8.3955319514375E-05
(PID.TID 0000.0001) %MON surfExpan_theta_mean         =   9.7805487155019E-16
(PID.TID 0000.0001) %MON surfExpan_salt_mean          =   0.0000000000000E+00
(PID.TID 0000.0001) %MON surfExpan_Heat_mean          =  -1.5073963666315E-13
(PID.TID 0000.0001) %MON En_Budget_T2PE_mean          =   0.0000000000000E+00
(PID.TID 0000.0001) // =======================================================
(PID.TID 0000.0001) // End MONITOR dynamic field statistics
(PID.TID 0000.0001) // =======================================================
 cg2d: Sum(rhs),rhsMax =  -1.12264528352404E+03  1.11845968159131E+00
(PID.TID 0000.0001)                    cg2d_init_res =    3.51926981690924E+00
(PID.TID 0000.0001)                       cg2d_iters =    24
(PID.TID 0000.0001)                         cg2d_res =    1.29943510953035E-13
(PID.TID 0000.0001) // =======================================================
(PID.TID 0000.0001) // Begin MONITOR dynamic field statistics
(PID.TID 0000.0001) // =======================================================
(PID.TID 0000.0001) %MON time_tsnumber                =                     9
(PID.TID 0000.0001) %MON time_secondsf                =   4.0500000000000E+03
(PID.TID 0000.0001) %MON dynstat_eta_max              =   3.8749017505735E+01
(PID.TID 0000.0001) %MON dynstat_eta_min              =  -2.0720495307539E-25
(PID.TID 0000.0001) %MON dynstat_eta_mean             =   2.0319026122791E+00
(PID.TID 0000.0001) %MON dynstat_eta_sd               =   6.7662462698635E+00
(PID.TID 0000.0001) %MON dynstat_eta_del2             =   3.6862055627444E-02
(PID.TID 0000.0001) %MON dynstat_uvel_max             =   0.0000000000000E+00
(PID.TID 0000.0001) %MON dynstat_uvel_min             =   0.0000000000000E+00
(PID.TID 0000.0001) %MON dynstat_uvel_mean            =   0.0000000000000E+00
(PID.TID 0000.0001) %MON dynstat_uvel_sd              =   0.0000000000000E+00
(PID.TID 0000.0001) %MON dynstat_uvel_del2            =   0.0000000000000E+00
(PID.TID 0000.0001) %MON dynstat_vvel_max             =   7.1366235638265E-28
(PID.TID 0000.0001) %MON dynstat_vvel_min             =  -1.1785261579062E-01
(PID.TID 0000.0001) %MON dynstat_vvel_mean            =  -6.8495348900125E-03
(PID.TID 0000.0001) %MON dynstat_vvel_sd              =   2.2871964605744E-02
(PID.TID 0000.0001) %MON dynstat_vvel_del2            =   3.9600214925671E-04
(PID.TID 0000.0001) %MON dynstat_wvel_max             =   4.1717635573211E-03
(PID.TID 0000.0001) %MON dynstat_wvel_min             =  -2.2240259981342E-02
(PID.TID 0000.0001) %MON dynstat_wvel_mean            =  -1.3178488625039E-18
(PID.TID 0000.0001) %MON dynstat_wvel_sd              =   2.1821843443957E-03
(PID.TID 0000.0001) %MON dynstat_wvel_del2            =   4.3020776690021E-05
(PID.TID 0000.0001) %MON dynstat_theta_max            =   3.0000000000000E+02
(PID.TID 0000.0001) %MON dynstat_theta_min            =   3.0000000000000E+02
(PID.TID 0000.0001) %MON dynstat_theta_mean           =   3.0000000000000E+02
(PID.TID 0000.0001) %MON dynstat_theta_sd             =   2.0463630789891E-12
(PID.TID 0000.0001) %MON dynstat_theta_del2           =   0.0000000000000E+00
(PID.TID 0000.0001) %MON dynstat_salt_max             =   0.0000000000000E+00
(PID.TID 0000.0001) %MON dynstat_salt_min             =   0.0000000000000E+00
(PID.TID 0000.0001) %MON dynstat_salt_mean            =   0.0000000000000E+00
(PID.TID 0000.0001) %MON dynstat_salt_sd              =   0.0000000000000E+00
(PID.TID 0000.0001) %MON dynstat_salt_del2            =   0.0000000000000E+00
(PID.TID 0000.0001) %MON advcfl_uvel_max              =   0.0000000000000E+00
(PID.TID 0000.0001) %MON advcfl_vvel_max              =   1.6960646755113E-04
(PID.TID 0000.0001) %MON advcfl_wvel_max              =   2.0016233983208E-04
(PID.TID 0000.0001) %MON advcfl_W_hf_max              =   0.0000000000000E+00
(PID.TID 0000.0001) %MON pe_b_mean                    =   2.4955358405114E-04
(PID.TID 0000.0001) %MON ke_max                       =   6.8477162883765E-03
(PID.TID 0000.0001) %MON ke_mean                      =   2.8496421264257E-04
(PID.TID 0000.0001) %MON ke_vol                       =   5.0990436378178E+19
(PID.TID 0000.0001) %MON vort_r_min                   =   0.0000000000000E+00
(PID.TID 0000.0001) %MON vort_r_max                   =   0.0000000000000E+00
(PID.TID 0000.0001) %MON vort_a_mean                  =  -2.4804158231269E-21
(PID.TID 0000.0001) %MON vort_a_sd                    =   8.3955319514375E-05
(PID.TID 0000.0001) %MON vort_p_mean                  =  -2.4804158231269E-21
(PID.TID 0000.0001) %MON vort_p_sd                    =   8.3955319514375E-05
(PID.TID 0000.0001) %MON surfExpan_theta_mean         =   1.5242274646002E-15
(PID.TID 0000.0001) %MON surfExpan_salt_mean          =   0.0000000000000E+00
(PID.TID 0000.0001) %MON surfExpan_Heat_mean          =   6.6233872925676E-14
(PID.TID 0000.0001) %MON En_Budget_T2PE_mean          =   0.0000000000000E+00
(PID.TID 0000.0001) // =======================================================
(PID.TID 0000.0001) // End MONITOR dynamic field statistics
(PID.TID 0000.0001) // =======================================================
 cg2d: Sum(rhs),rhsMax =  -1.10022945833345E+03  1.14124692521158E+00
(PID.TID 0000.0001)                    cg2d_init_res =    3.48067455756584E+00
(PID.TID 0000.0001)                       cg2d_iters =    24
(PID.TID 0000.0001)                         cg2d_res =    1.52081017316310E-13
(PID.TID 0000.0001) // =======================================================
(PID.TID 0000.0001) // Begin MONITOR dynamic field statistics
(PID.TID 0000.0001) // =======================================================
(PID.TID 0000.0001) %MON time_tsnumber                =                    10
(PID.TID 0000.0001) %MON time_secondsf                =   4.5000000000000E+03
(PID.TID 0000.0001) %MON dynstat_eta_max              =   2.8728794127289E+01
(PID.TID 0000.0001) %MON dynstat_eta_min              =  -1.9512448782538E-27
(PID.TID 0000.0001) %MON dynstat_eta_mean             =   2.0319026122791E+00
(PID.TID 0000.0001) %MON dynstat_eta_sd               =   6.3422609192815E+00
(PID.TID 0000.0001) %MON dynstat_eta_del2             =   3.5119945638922E-02
(PID.TID 0000.0001) %MON dynstat_uvel_max             =   0.0000000000000E+00
(PID.TID 0000.0001) %MON dynstat_uvel_min             =   0.0000000000000E+00
(PID.TID 0000.0001) %MON dynstat_uvel_mean            =   0.0000000000000E+00
(PID.TID 0000.0001) %MON dynstat_uvel_sd              =   0.0000000000000E+00
(PID.TID 0000.0001) %MON dynstat_uvel_del2            =   0.0000000000000E+00
(PID.TID 0000.0001) %MON dynstat_vvel_max             =   9.3036742370346E-29
(PID.TID 0000.0001) %MON dynstat_vvel_min             =  -1.1819589213993E-01
(PID.TID 0000.0001) %MON dynstat_vvel_mean            =  -7.3550819280189E-03
(PID.TID 0000.0001) %MON dynstat_vvel_sd              =   2.3651978177130E-02
(PID.TID 0000.0001) %MON dynstat_vvel_del2            =   3.8877042979055E-04
(PID.TID 0000.0001) %MON dynstat_wvel_max             =   3.9763255792746E-03
(PID.TID 0000.0001) %MON dynstat_wvel_min             =  -2.2267163063215E-02
(PID.TID 0000.0001) %MON dynstat_wvel_mean            =   5.5087763005443E-18
(PID.TID 0000.0001) %MON dynstat_wvel_sd              =   2.1911525859573E-03
(PID.TID 0000.0001) %MON dynstat_wvel_del2            =   4.1002807483884E-05
(PID.TID 0000.0001) %MON dynstat_theta_max            =   3.0000000000000E+02
(PID.TID 0000.0001) %MON dynstat_theta_min            =   3.0000000000000E+02
(PID.TID 0000.0001) %MON dynstat_theta_mean           =   3.0000000000000E+02
(PID.TID 0000.0001) %MON dynstat_theta_sd             =   2.0463630789891E-12
(PID.TID 0000.0001) %MON dynstat_theta_del2           =   0.0000000000000E+00
(PID.TID 0000.0001) %MON dynstat_salt_max             =   0.0000000000000E+00
(PID.TID 0000.0001) %MON dynstat_salt_min             =   0.0000000000000E+00
(PID.TID 0000.0001) %MON dynstat_salt_mean            =   0.0000000000000E+00
(PID.TID 0000.0001) %MON dynstat_salt_sd              =   0.0000000000000E+00
(PID.TID 0000.0001) %MON dynstat_salt_del2            =   0.0000000000000E+00
(PID.TID 0000.0001) %MON advcfl_uvel_max              =   0.0000000000000E+00
(PID.TID 0000.0001) %MON advcfl_vvel_max              =   1.7010049043395E-04
(PID.TID 0000.0001) %MON advcfl_wvel_max              =   2.0040446756894E-04
(PID.TID 0000.0001) %MON advcfl_W_hf_max              =   0.0000000000000E+00
(PID.TID 0000.0001) %MON pe_b_mean                    =   2.2176450897016E-04
(PID.TID 0000.0001) %MON ke_max                       =   6.9271600751689E-03
(PID.TID 0000.0001) %MON ke_mean                      =   3.0669505245179E-04
(PID.TID 0000.0001) %MON ke_vol                       =   5.0990436378178E+19
(PID.TID 0000.0001) %MON vort_r_min                   =   0.0000000000000E+00
(PID.TID 0000.0001) %MON vort_r_max                   =   0.0000000000000E+00
(PID.TID 0000.0001) %MON vort_a_mean                  =  -2.4804158231269E-21
(PID.TID 0000.0001) %MON vort_a_sd                    =   8.3955319514375E-05
(PID.TID 0000.0001) %MON vort_p_mean                  =  -2.4804158231269E-21
(PID.TID 0000.0001) %MON vort_p_sd                    =   8.3955319514375E-05
(PID.TID 0000.0001) %MON surfExpan_theta_mean         =   2.1521172210873E-16
(PID.TID 0000.0001) %MON surfExpan_salt_mean          =   0.0000000000000E+00
(PID.TID 0000.0001) %MON surfExpan_Heat_mean          =   1.1237711605549E-13
(PID.TID 0000.0001) %MON En_Budget_T2PE_mean          =   0.0000000000000E+00
(PID.TID 0000.0001) // =======================================================
(PID.TID 0000.0001) // End MONITOR dynamic field statistics
(PID.TID 0000.0001) // =======================================================
 cg2d: Sum(rhs),rhsMax =  -1.06980994920084E+03  1.17369770891386E+00
(PID.TID 0000.0001)                    cg2d_init_res =    3.38260282175674E+00
(PID.TID 0000.0001)                       cg2d_iters =    24
(PID.TID 0000.0001)                         cg2d_res =    1.01150437613917E-13
(PID.TID 0000.0001) // =======================================================
(PID.TID 0000.0001) // Begin MONITOR dynamic field statistics
(PID.TID 0000.0001) // =======================================================
(PID.TID 0000.0001) %MON time_tsnumber                =                    11
(PID.TID 0000.0001) %MON time_secondsf                =   4.9500000000000E+03
(PID.TID 0000.0001) %MON dynstat_eta_max              =   2.6204246959741E+01
(PID.TID 0000.0001) %MON dynstat_eta_min              =  -2.5356664168578E-29
(PID.TID 0000.0001) %MON dynstat_eta_mean             =   2.0319026122790E+00
(PID.TID 0000.0001) %MON dynstat_eta_sd               =   6.0108211082472E+00
(PID.TID 0000.0001) %MON dynstat_eta_del2             =   4.7371552916638E-02
(PID.TID 0000.0001) %MON dynstat_uvel_max             =   0.0000000000000E+00
(PID.TID 0000.0001) %MON dynstat_uvel_min             =   0.0000000000000E+00
(PID.TID 0000.0001) %MON dynstat_uvel_mean            =   0.0000000000000E+00
(PID.TID 0000.0001) %MON dynstat_uvel_sd              =   0.0000000000000E+00
(PID.TID 0000.0001) %MON dynstat_uvel_del2            =   0.0000000000000E+00
(PID.TID 0000.0001) %MON dynstat_vvel_max             =   8.3827447404074E-32
(PID.TID 0000.0001) %MON dynstat_vvel_min             =  -1.1603373979293E-01
(PID.TID 0000.0001) %MON dynstat_vvel_mean            =  -7.8011565314163E-03
(PID.TID 0000.0001) %MON dynstat_vvel_sd              =   2.4119352086682E-02
(PID.TID 0000.0001) %MON dynstat_vvel_del2            =   3.7661100779047E-04
(PID.TID 0000.0001) %MON dynstat_wvel_max             =   3.9234579792778E-03
(PID.TID 0000.0001) %MON dynstat_wvel_min             =  -2.1745591835517E-02
(PID.TID 0000.0001) %MON dynstat_wvel_mean            =   2.7926079672910E-18
(PID.TID 0000.0001) %MON dynstat_wvel_sd              =   2.1641109715044E-03
(PID.TID 0000.0001) %MON dynstat_wvel_del2            =   3.8604039386706E-05
(PID.TID 0000.0001) %MON dynstat_theta_max            =   3.0000000000000E+02
(PID.TID 0000.0001) %MON dynstat_theta_min            =   3.0000000000000E+02
(PID.TID 0000.0001) %MON dynstat_theta_mean           =   3.0000000000000E+02
(PID.TID 0000.0001) %MON dynstat_theta_sd             =   2.0463630789891E-12
(PID.TID 0000.0001) %MON dynstat_theta_del2           =   0.0000000000000E+00
(PID.TID 0000.0001) %MON dynstat_salt_max             =   0.0000000000000E+00
(PID.TID 0000.0001) %MON dynstat_salt_min             =   0.0000000000000E+00
(PID.TID 0000.0001) %MON dynstat_salt_mean            =   0.0000000000000E+00
(PID.TID 0000.0001) %MON dynstat_salt_sd              =   0.0000000000000E+00
(PID.TID 0000.0001) %MON dynstat_salt_del2            =   0.0000000000000E+00
(PID.TID 0000.0001) %MON advcfl_uvel_max              =   0.0000000000000E+00
(PID.TID 0000.0001) %MON advcfl_vvel_max              =   1.6698884951344E-04
(PID.TID 0000.0001) %MON advcfl_wvel_max              =   1.9571032651965E-04
(PID.TID 0000.0001) %MON advcfl_W_hf_max              =   0.0000000000000E+00
(PID.TID 0000.0001) %MON pe_b_mean                    =   2.0129299310567E-04
(PID.TID 0000.0001) %MON ke_max                       =   6.7279257630264E-03
(PID.TID 0000.0001) %MON ke_mean                      =   3.2123607517022E-04
(PID.TID 0000.0001) %MON ke_vol                       =   5.0990436378178E+19
(PID.TID 0000.0001) %MON vort_r_min                   =   0.0000000000000E+00
(PID.TID 0000.0001) %MON vort_r_max                   =   0.0000000000000E+00
(PID.TID 0000.0001) %MON vort_a_mean                  =  -2.4804158231269E-21
(PID.TID 0000.0001) %MON vort_a_sd                    =   8.3955319514375E-05
(PID.TID 0000.0001) %MON vort_p_mean                  =  -2.4804158231269E-21
(PID.TID 0000.0001) %MON vort_p_sd                    =   8.3955319514375E-05
(PID.TID 0000.0001) %MON surfExpan_theta_mean         =  -4.4193701324882E-16
(PID.TID 0000.0001) %MON surfExpan_salt_mean          =   0.0000000000000E+00
(PID.TID 0000.0001) %MON surfExpan_Heat_mean          =  -3.2863994258292E-14
(PID.TID 0000.0001) %MON En_Budget_T2PE_mean          =   0.0000000000000E+00
(PID.TID 0000.0001) // =======================================================
(PID.TID 0000.0001) // End MONITOR dynamic field statistics
(PID.TID 0000.0001) // =======================================================
 cg2d: Sum(rhs),rhsMax =  -1.05682187259739E+03  1.18812216032606E+00
(PID.TID 0000.0001)                    cg2d_init_res =    3.31946028856035E+00
(PID.TID 0000.0001)                       cg2d_iters =    24
(PID.TID 0000.0001)                         cg2d_res =    1.41022156918301E-13
(PID.TID 0000.0001) // =======================================================
(PID.TID 0000.0001) // Begin MONITOR dynamic field statistics
(PID.TID 0000.0001) // =======================================================
(PID.TID 0000.0001) %MON time_tsnumber                =                    12
(PID.TID 0000.0001) %MON time_secondsf                =   5.4000000000000E+03
(PID.TID 0000.0001) %MON dynstat_eta_max              =   2.5330958823830E+01
(PID.TID 0000.0001) %MON dynstat_eta_min              =   1.8853079743883E-30
(PID.TID 0000.0001) %MON dynstat_eta_mean             =   2.0319026122790E+00
(PID.TID 0000.0001) %MON dynstat_eta_sd               =   5.7794708952490E+00
(PID.TID 0000.0001) %MON dynstat_eta_del2             =   5.8493937484612E-02
(PID.TID 0000.0001) %MON dynstat_uvel_max             =   0.0000000000000E+00
(PID.TID 0000.0001) %MON dynstat_uvel_min             =   0.0000000000000E+00
(PID.TID 0000.0001) %MON dynstat_uvel_mean            =   0.0000000000000E+00
(PID.TID 0000.0001) %MON dynstat_uvel_sd              =   0.0000000000000E+00
(PID.TID 0000.0001) %MON dynstat_uvel_del2            =   0.0000000000000E+00
(PID.TID 0000.0001) %MON dynstat_vvel_max             =   1.6279029935941E-31
(PID.TID 0000.0001) %MON dynstat_vvel_min             =  -1.1277221490957E-01
(PID.TID 0000.0001) %MON dynstat_vvel_mean            =  -8.1889563191233E-03
(PID.TID 0000.0001) %MON dynstat_vvel_sd              =   2.4314787448856E-02
(PID.TID 0000.0001) %MON dynstat_vvel_del2            =   3.5845320025589E-04
(PID.TID 0000.0001) %MON dynstat_wvel_max             =   3.7570291364407E-03
(PID.TID 0000.0001) %MON dynstat_wvel_min             =  -2.0704533302499E-02
(PID.TID 0000.0001) %MON dynstat_wvel_mean            =  -2.8582295502447E-18
(PID.TID 0000.0001) %MON dynstat_wvel_sd              =   2.1079674326749E-03
(PID.TID 0000.0001) %MON dynstat_wvel_del2            =   3.5297444268662E-05
(PID.TID 0000.0001) %MON dynstat_theta_max            =   3.0000000000000E+02
(PID.TID 0000.0001) %MON dynstat_theta_min            =   3.0000000000000E+02
(PID.TID 0000.0001) %MON dynstat_theta_mean           =   3.0000000000000E+02
(PID.TID 0000.0001) %MON dynstat_theta_sd             =   2.0463630789891E-12
(PID.TID 0000.0001) %MON dynstat_theta_del2           =   0.0000000000000E+00
(PID.TID 0000.0001) %MON dynstat_salt_max             =   0.0000000000000E+00
(PID.TID 0000.0001) %MON dynstat_salt_min             =   0.0000000000000E+00
(PID.TID 0000.0001) %MON dynstat_salt_mean            =   0.0000000000000E+00
(PID.TID 0000.0001) %MON dynstat_salt_sd              =   0.0000000000000E+00
(PID.TID 0000.0001) %MON dynstat_salt_del2            =   0.0000000000000E+00
(PID.TID 0000.0001) %MON advcfl_uvel_max              =   0.0000000000000E+00
(PID.TID 0000.0001) %MON advcfl_vvel_max              =   1.6229505709666E-04
(PID.TID 0000.0001) %MON advcfl_wvel_max              =   1.8634079972249E-04
(PID.TID 0000.0001) %MON advcfl_W_hf_max              =   0.0000000000000E+00
(PID.TID 0000.0001) %MON pe_b_mean                    =   1.8765456027408E-04
(PID.TID 0000.0001) %MON ke_max                       =   6.2917759679185E-03
(PID.TID 0000.0001) %MON ke_mean                      =   3.2906785517373E-04
(PID.TID 0000.0001) %MON ke_vol                       =   5.0990436378178E+19
(PID.TID 0000.0001) %MON vort_r_min                   =   0.0000000000000E+00
(PID.TID 0000.0001) %MON vort_r_max                   =   0.0000000000000E+00
(PID.TID 0000.0001) %MON vort_a_mean                  =  -2.4804158231269E-21
(PID.TID 0000.0001) %MON vort_a_sd                    =   8.3955319514375E-05
(PID.TID 0000.0001) %MON vort_p_mean                  =  -2.4804158231269E-21
(PID.TID 0000.0001) %MON vort_p_sd                    =   8.3955319514375E-05
(PID.TID 0000.0001) %MON surfExpan_theta_mean         =  -8.2760791039308E-16
(PID.TID 0000.0001) %MON surfExpan_salt_mean          =   0.0000000000000E+00
(PID.TID 0000.0001) %MON surfExpan_Heat_mean          =  -2.2016493445683E-13
(PID.TID 0000.0001) %MON En_Budget_T2PE_mean          =   0.0000000000000E+00
(PID.TID 0000.0001) // =======================================================
(PID.TID 0000.0001) // End MONITOR dynamic field statistics
(PID.TID 0000.0001) // =======================================================
 cg2d: Sum(rhs),rhsMax =  -1.03080570765811E+03  1.21810878327684E+00
(PID.TID 0000.0001)                    cg2d_init_res =    3.20718597899848E+00
(PID.TID 0000.0001)                       cg2d_iters =    24
(PID.TID 0000.0001)                         cg2d_res =    1.33810237908480E-13
(PID.TID 0000.0001) // =======================================================
(PID.TID 0000.0001) // Begin MONITOR dynamic field statistics
(PID.TID 0000.0001) // =======================================================
(PID.TID 0000.0001) %MON time_tsnumber                =                    13
(PID.TID 0000.0001) %MON time_secondsf                =   5.8500000000000E+03
(PID.TID 0000.0001) %MON dynstat_eta_max              =   2.4388539623077E+01
(PID.TID 0000.0001) %MON dynstat_eta_min              =   1.3895522745380E-29
(PID.TID 0000.0001) %MON dynstat_eta_mean             =   2.0319026122790E+00
(PID.TID 0000.0001) %MON dynstat_eta_sd               =   5.6445025537453E+00
(PID.TID 0000.0001) %MON dynstat_eta_del2             =   6.8781197969914E-02
(PID.TID 0000.0001) %MON dynstat_uvel_max             =   0.0000000000000E+00
(PID.TID 0000.0001) %MON dynstat_uvel_min             =   0.0000000000000E+00
(PID.TID 0000.0001) %MON dynstat_uvel_mean            =   0.0000000000000E+00
(PID.TID 0000.0001) %MON dynstat_uvel_sd              =   0.0000000000000E+00
(PID.TID 0000.0001) %MON dynstat_uvel_del2            =   0.0000000000000E+00
(PID.TID 0000.0001) %MON dynstat_vvel_max             =  -4.1859338325030E-32
(PID.TID 0000.0001) %MON dynstat_vvel_min             =  -1.0780848129967E-01
(PID.TID 0000.0001) %MON dynstat_vvel_mean            =  -8.5206839524417E-03
(PID.TID 0000.0001) %MON dynstat_vvel_sd              =   2.4283993059079E-02
(PID.TID 0000.0001) %MON dynstat_vvel_del2            =   3.3712232946637E-04
(PID.TID 0000.0001) %MON dynstat_wvel_max             =   3.6934418496425E-03
(PID.TID 0000.0001) %MON dynstat_wvel_min             =  -1.9190366431386E-02
(PID.TID 0000.0001) %MON dynstat_wvel_mean            =   2.2989884017389E-18
(PID.TID 0000.0001) %MON dynstat_wvel_sd              =   2.0304441151700E-03
(PID.TID 0000.0001) %MON dynstat_wvel_del2            =   3.1431080156450E-05
(PID.TID 0000.0001) %MON dynstat_theta_max            =   3.0000000000000E+02
(PID.TID 0000.0001) %MON dynstat_theta_min            =   3.0000000000000E+02
(PID.TID 0000.0001) %MON dynstat_theta_mean           =   3.0000000000000E+02
(PID.TID 0000.0001) %MON dynstat_theta_sd             =   2.0463630789891E-12
(PID.TID 0000.0001) %MON dynstat_theta_del2           =   0.0000000000000E+00
(PID.TID 0000.0001) %MON dynstat_salt_max             =   0.0000000000000E+00
(PID.TID 0000.0001) %MON dynstat_salt_min             =   0.0000000000000E+00
(PID.TID 0000.0001) %MON dynstat_salt_mean            =   0.0000000000000E+00
(PID.TID 0000.0001) %MON dynstat_salt_sd              =   0.0000000000000E+00
(PID.TID 0000.0001) %MON dynstat_salt_del2            =   0.0000000000000E+00
(PID.TID 0000.0001) %MON advcfl_uvel_max              =   0.0000000000000E+00
(PID.TID 0000.0001) %MON advcfl_vvel_max              =   1.5515154723231E-04
(PID.TID 0000.0001) %MON advcfl_wvel_max              =   1.7271329788247E-04
(PID.TID 0000.0001) %MON advcfl_W_hf_max              =   0.0000000000000E+00
(PID.TID 0000.0001) %MON pe_b_mean                    =   1.7994518652512E-04
(PID.TID 0000.0001) %MON ke_max                       =   5.6754684763357E-03
(PID.TID 0000.0001) %MON ke_mean                      =   3.3109068871129E-04
(PID.TID 0000.0001) %MON ke_vol                       =   5.0990436378178E+19
(PID.TID 0000.0001) %MON vort_r_min                   =   0.0000000000000E+00
(PID.TID 0000.0001) %MON vort_r_max                   =   0.0000000000000E+00
(PID.TID 0000.0001) %MON vort_a_mean                  =  -2.4804158231269E-21
(PID.TID 0000.0001) %MON vort_a_sd                    =   8.3955319514375E-05
(PID.TID 0000.0001) %MON vort_p_mean                  =  -2.4804158231269E-21
(PID.TID 0000.0001) %MON vort_p_sd                    =   8.3955319514375E-05
(PID.TID 0000.0001) %MON surfExpan_theta_mean         =   4.9197128854562E-16
(PID.TID 0000.0001) %MON surfExpan_salt_mean          =   0.0000000000000E+00
(PID.TID 0000.0001) %MON surfExpan_Heat_mean          =   2.0047035877938E-13
(PID.TID 0000.0001) %MON En_Budget_T2PE_mean          =   0.0000000000000E+00
(PID.TID 0000.0001) // =======================================================
(PID.TID 0000.0001) // End MONITOR dynamic field statistics
(PID.TID 0000.0001) // =======================================================
 cg2d: Sum(rhs),rhsMax =  -1.01503580314701E+03  1.23703369128193E+00
(PID.TID 0000.0001)                    cg2d_init_res =    3.12804417024465E+00
(PID.TID 0000.0001)                       cg2d_iters =    24
(PID.TID 0000.0001)                         cg2d_res =    1.02179432657655E-13
(PID.TID 0000.0001) // =======================================================
(PID.TID 0000.0001) // Begin MONITOR dynamic field statistics
(PID.TID 0000.0001) // =======================================================
(PID.TID 0000.0001) %MON time_tsnumber                =                    14
(PID.TID 0000.0001) %MON time_secondsf                =   6.3000000000000E+03
(PID.TID 0000.0001) %MON dynstat_eta_max              =   2.3861280803968E+01
(PID.TID 0000.0001) %MON dynstat_eta_min              =  -6.7795579253555E+00
(PID.TID 0000.0001) %MON dynstat_eta_mean             =   2.0319026122790E+00
(PID.TID 0000.0001) %MON dynstat_eta_sd               =   5.5922706265316E+00
(PID.TID 0000.0001) %MON dynstat_eta_del2             =   7.6321993909845E-02
(PID.TID 0000.0001) %MON dynstat_uvel_max             =   0.0000000000000E+00
(PID.TID 0000.0001) %MON dynstat_uvel_min             =   0.0000000000000E+00
(PID.TID 0000.0001) %MON dynstat_uvel_mean            =   0.0000000000000E+00
(PID.TID 0000.0001) %MON dynstat_uvel_sd              =   0.0000000000000E+00
(PID.TID 0000.0001) %MON dynstat_uvel_del2            =   0.0000000000000E+00
(PID.TID 0000.0001) %MON dynstat_vvel_max             =  -2.9920505543742E-31
(PID.TID 0000.0001) %MON dynstat_vvel_min             =  -1.0154411885279E-01
(PID.TID 0000.0001) %MON dynstat_vvel_mean            =  -8.7994154842922E-03
(PID.TID 0000.0001) %MON dynstat_vvel_sd              =   2.4075148954918E-02
(PID.TID 0000.0001) %MON dynstat_vvel_del2            =   3.1020799792476E-04
(PID.TID 0000.0001) %MON dynstat_wvel_max             =   3.5652449148078E-03
(PID.TID 0000.0001) %MON dynstat_wvel_min             =  -1.7266957436476E-02
(PID.TID 0000.0001) %MON dynstat_wvel_mean            =   3.8549043092715E-18
(PID.TID 0000.0001) %MON dynstat_wvel_sd              =   1.9397367764445E-03
(PID.TID 0000.0001) %MON dynstat_wvel_del2            =   2.6665007932904E-05
(PID.TID 0000.0001) %MON dynstat_theta_max            =   3.0000000000000E+02
(PID.TID 0000.0001) %MON dynstat_theta_min            =   3.0000000000000E+02
(PID.TID 0000.0001) %MON dynstat_theta_mean           =   3.0000000000000E+02
(PID.TID 0000.0001) %MON dynstat_theta_sd             =   2.0463630789891E-12
(PID.TID 0000.0001) %MON dynstat_theta_del2           =   0.0000000000000E+00
(PID.TID 0000.0001) %MON dynstat_salt_max             =   0.0000000000000E+00
(PID.TID 0000.0001) %MON dynstat_salt_min             =   0.0000000000000E+00
(PID.TID 0000.0001) %MON dynstat_salt_mean            =   0.0000000000000E+00
(PID.TID 0000.0001) %MON dynstat_salt_sd              =   0.0000000000000E+00
(PID.TID 0000.0001) %MON dynstat_salt_del2            =   0.0000000000000E+00
(PID.TID 0000.0001) %MON advcfl_uvel_max              =   0.0000000000000E+00
(PID.TID 0000.0001) %MON advcfl_vvel_max              =   1.4613624978686E-04
(PID.TID 0000.0001) %MON advcfl_wvel_max              =   1.5540261692828E-04
(PID.TID 0000.0001) %MON advcfl_W_hf_max              =   0.0000000000000E+00
(PID.TID 0000.0001) %MON pe_b_mean                    =   1.7701059493076E-04
(PID.TID 0000.0001) %MON ke_max                       =   5.1490980784985E-03
(PID.TID 0000.0001) %MON ke_mean                      =   3.2845528609935E-04
(PID.TID 0000.0001) %MON ke_vol                       =   5.0990436378178E+19
(PID.TID 0000.0001) %MON vort_r_min                   =   0.0000000000000E+00
(PID.TID 0000.0001) %MON vort_r_max                   =   0.0000000000000E+00
(PID.TID 0000.0001) %MON vort_a_mean                  =  -2.4804158231269E-21
(PID.TID 0000.0001) %MON vort_a_sd                    =   8.3955319514375E-05
(PID.TID 0000.0001) %MON vort_p_mean                  =  -2.4804158231269E-21
(PID.TID 0000.0001) %MON vort_p_sd                    =   8.3955319514375E-05
(PID.TID 0000.0001) %MON surfExpan_theta_mean         =  -5.5984074809894E-16
(PID.TID 0000.0001) %MON surfExpan_salt_mean          =   0.0000000000000E+00
(PID.TID 0000.0001) %MON surfExpan_Heat_mean          =  -3.1949399269063E-14
(PID.TID 0000.0001) %MON En_Budget_T2PE_mean          =   0.0000000000000E+00
(PID.TID 0000.0001) // =======================================================
(PID.TID 0000.0001) // End MONITOR dynamic field statistics
(PID.TID 0000.0001) // =======================================================
 cg2d: Sum(rhs),rhsMax =  -1.00007248287487E+03  1.25554248102175E+00
(PID.TID 0000.0001)                    cg2d_init_res =    3.05885022126541E+00
(PID.TID 0000.0001)                       cg2d_iters =    24
(PID.TID 0000.0001)                         cg2d_res =    1.36240672930279E-13
(PID.TID 0000.0001) // =======================================================
(PID.TID 0000.0001) // Begin MONITOR dynamic field statistics
(PID.TID 0000.0001) // =======================================================
(PID.TID 0000.0001) %MON time_tsnumber                =                    15
(PID.TID 0000.0001) %MON time_secondsf                =   6.7500000000000E+03
(PID.TID 0000.0001) %MON dynstat_eta_max              =   2.3070379974370E+01
(PID.TID 0000.0001) %MON dynstat_eta_min              =  -1.3536203435076E+01
(PID.TID 0000.0001) %MON dynstat_eta_mean             =   2.0319026122791E+00
(PID.TID 0000.0001) %MON dynstat_eta_sd               =   5.6029399297805E+00
(PID.TID 0000.0001) %MON dynstat_eta_del2             =   8.2677366901729E-02
(PID.TID 0000.0001) %MON dynstat_uvel_max             =   0.0000000000000E+00
(PID.TID 0000.0001) %MON dynstat_uvel_min             =   0.0000000000000E+00
(PID.TID 0000.0001) %MON dynstat_uvel_mean            =   0.0000000000000E+00
(PID.TID 0000.0001) %MON dynstat_uvel_sd              =   0.0000000000000E+00
(PID.TID 0000.0001) %MON dynstat_uvel_del2            =   0.0000000000000E+00
(PID.TID 0000.0001) %MON dynstat_vvel_max             =  -1.9618650312068E-30
(PID.TID 0000.0001) %MON dynstat_vvel_min             =  -9.6537495754790E-02
(PID.TID 0000.0001) %MON dynstat_vvel_mean            =  -9.0289445985250E-03
(PID.TID 0000.0001) %MON dynstat_vvel_sd              =   2.3736260374492E-02
(PID.TID 0000.0001) %MON dynstat_vvel_del2            =   2.8251126048642E-04
(PID.TID 0000.0001) %MON dynstat_wvel_max             =   3.4761437689667E-03
(PID.TID 0000.0001) %MON dynstat_wvel_min             =  -1.5014767799380E-02
(PID.TID 0000.0001) %MON dynstat_wvel_mean            =  -4.0827802653036E-19
(PID.TID 0000.0001) %MON dynstat_wvel_sd              =   1.8440674931349E-03
(PID.TID 0000.0001) %MON dynstat_wvel_del2            =   2.2085900643844E-05
(PID.TID 0000.0001) %MON dynstat_theta_max            =   3.0000000000000E+02
(PID.TID 0000.0001) %MON dynstat_theta_min            =   3.0000000000000E+02
(PID.TID 0000.0001) %MON dynstat_theta_mean           =   3.0000000000000E+02
(PID.TID 0000.0001) %MON dynstat_theta_sd             =   2.0463630789891E-12
(PID.TID 0000.0001) %MON dynstat_theta_del2           =   0.0000000000000E+00
(PID.TID 0000.0001) %MON dynstat_salt_max             =   0.0000000000000E+00
(PID.TID 0000.0001) %MON dynstat_salt_min             =   0.0000000000000E+00
(PID.TID 0000.0001) %MON dynstat_salt_mean            =   0.0000000000000E+00
(PID.TID 0000.0001) %MON dynstat_salt_sd              =   0.0000000000000E+00
(PID.TID 0000.0001) %MON dynstat_salt_del2            =   0.0000000000000E+00
(PID.TID 0000.0001) %MON advcfl_uvel_max              =   0.0000000000000E+00
(PID.TID 0000.0001) %MON advcfl_vvel_max              =   1.3893101592494E-04
(PID.TID 0000.0001) %MON advcfl_wvel_max              =   1.3513291019442E-04
(PID.TID 0000.0001) %MON advcfl_W_hf_max              =   0.0000000000000E+00
(PID.TID 0000.0001) %MON pe_b_mean                    =   1.7760782041257E-04
(PID.TID 0000.0001) %MON ke_max                       =   4.6085373728495E-03
(PID.TID 0000.0001) %MON ke_mean                      =   3.2240119557041E-04
(PID.TID 0000.0001) %MON ke_vol                       =   5.0990436378178E+19
(PID.TID 0000.0001) %MON vort_r_min                   =   0.0000000000000E+00
(PID.TID 0000.0001) %MON vort_r_max                   =   0.0000000000000E+00
(PID.TID 0000.0001) %MON vort_a_mean                  =  -2.4804158231269E-21
(PID.TID 0000.0001) %MON vort_a_sd                    =   8.3955319514375E-05
(PID.TID 0000.0001) %MON vort_p_mean                  =  -2.4804158231269E-21
(PID.TID 0000.0001) %MON vort_p_sd                    =   8.3955319514375E-05
(PID.TID 0000.0001) %MON surfExpan_theta_mean         =   1.9827054142547E-15
(PID.TID 0000.0001) %MON surfExpan_salt_mean          =   0.0000000000000E+00
(PID.TID 0000.0001) %MON surfExpan_Heat_mean          =   1.2068514602862E-13
(PID.TID 0000.0001) %MON En_Budget_T2PE_mean          =   0.0000000000000E+00
(PID.TID 0000.0001) // =======================================================
(PID.TID 0000.0001) // End MONITOR dynamic field statistics
(PID.TID 0000.0001) // =======================================================
 cg2d: Sum(rhs),rhsMax =  -9.81571484824723E+02  1.27920737894550E+00
(PID.TID 0000.0001)                    cg2d_init_res =    2.98995968782342E+00
(PID.TID 0000.0001)                       cg2d_iters =    24
(PID.TID 0000.0001)                         cg2d_res =    1.50687437024765E-13
(PID.TID 0000.0001) // =======================================================
(PID.TID 0000.0001) // Begin MONITOR dynamic field statistics
(PID.TID 0000.0001) // =======================================================
(PID.TID 0000.0001) %MON time_tsnumber                =                    16
(PID.TID 0000.0001) %MON time_secondsf                =   7.2000000000000E+03
(PID.TID 0000.0001) %MON dynstat_eta_max              =   2.2574734665423E+01
(PID.TID 0000.0001) %MON dynstat_eta_min              =  -1.9174073464745E+01
(PID.TID 0000.0001) %MON dynstat_eta_mean             =   2.0319026122790E+00
(PID.TID 0000.0001) %MON dynstat_eta_sd               =   5.6550673285778E+00
(PID.TID 0000.0001) %MON dynstat_eta_del2             =   8.5918070250237E-02
(PID.TID 0000.0001) %MON dynstat_uvel_max             =   0.0000000000000E+00
(PID.TID 0000.0001) %MON dynstat_uvel_min             =   0.0000000000000E+00
(PID.TID 0000.0001) %MON dynstat_uvel_mean            =   0.0000000000000E+00
(PID.TID 0000.0001) %MON dynstat_uvel_sd              =   0.0000000000000E+00
(PID.TID 0000.0001) %MON dynstat_uvel_del2            =   0.0000000000000E+00
(PID.TID 0000.0001) %MON dynstat_vvel_max             =  -1.1761739393166E-29
(PID.TID 0000.0001) %MON dynstat_vvel_min             =  -9.2132102068040E-02
(PID.TID 0000.0001) %MON dynstat_vvel_mean            =  -9.2136088715451E-03
(PID.TID 0000.0001) %MON dynstat_vvel_sd              =   2.3312559919151E-02
(PID.TID 0000.0001) %MON dynstat_vvel_del2            =   2.5058729678939E-04
(PID.TID 0000.0001) %MON dynstat_wvel_max             =   3.3841128716291E-03
(PID.TID 0000.0001) %MON dynstat_wvel_min             =  -1.2528600065932E-02
(PID.TID 0000.0001) %MON dynstat_wvel_mean            =   9.7804342998776E-19
(PID.TID 0000.0001) %MON dynstat_wvel_sd              =   1.7511111605690E-03
(PID.TID 0000.0001) %MON dynstat_wvel_del2            =   1.9832381198563E-05
(PID.TID 0000.0001) %MON dynstat_theta_max            =   3.0000000000000E+02
(PID.TID 0000.0001) %MON dynstat_theta_min            =   3.0000000000000E+02
(PID.TID 0000.0001) %MON dynstat_theta_mean           =   3.0000000000000E+02
(PID.TID 0000.0001) %MON dynstat_theta_sd             =   2.0463630789891E-12
(PID.TID 0000.0001) %MON dynstat_theta_del2           =   0.0000000000000E+00
(PID.TID 0000.0001) %MON dynstat_salt_max             =   0.0000000000000E+00
(PID.TID 0000.0001) %MON dynstat_salt_min             =   0.0000000000000E+00
(PID.TID 0000.0001) %MON dynstat_salt_mean            =   0.0000000000000E+00
(PID.TID 0000.0001) %MON dynstat_salt_sd              =   0.0000000000000E+00
(PID.TID 0000.0001) %MON dynstat_salt_del2            =   0.0000000000000E+00
(PID.TID 0000.0001) %MON advcfl_uvel_max              =   0.0000000000000E+00
(PID.TID 0000.0001) %MON advcfl_vvel_max              =   1.3259103563371E-04
(PID.TID 0000.0001) %MON advcfl_wvel_max              =   1.1275740059339E-04
(PID.TID 0000.0001) %MON advcfl_W_hf_max              =   0.0000000000000E+00
(PID.TID 0000.0001) %MON pe_b_mean                    =   1.8054207358267E-04
(PID.TID 0000.0001) %MON ke_max                       =   4.1745614638405E-03
(PID.TID 0000.0001) %MON ke_mean                      =   3.1411992947611E-04
(PID.TID 0000.0001) %MON ke_vol                       =   5.0990436378178E+19
(PID.TID 0000.0001) %MON vort_r_min                   =   0.0000000000000E+00
(PID.TID 0000.0001) %MON vort_r_max                   =   0.0000000000000E+00
(PID.TID 0000.0001) %MON vort_a_mean                  =  -2.4804158231269E-21
(PID.TID 0000.0001) %MON vort_a_sd                    =   8.3955319514375E-05
(PID.TID 0000.0001) %MON vort_p_mean                  =  -2.4804158231269E-21
(PID.TID 0000.0001) %MON vort_p_sd                    =   8.3955319514375E-05
(PID.TID 0000.0001) %MON surfExpan_theta_mean         =  -1.3423669385550E-15
(PID.TID 0000.0001) %MON surfExpan_salt_mean          =   0.0000000000000E+00
(PID.TID 0000.0001) %MON surfExpan_Heat_mean          =   1.6006860135613E-13
(PID.TID 0000.0001) %MON En_Budget_T2PE_mean          =   0.0000000000000E+00
(PID.TID 0000.0001) // =======================================================
(PID.TID 0000.0001) // End MONITOR dynamic field statistics
(PID.TID 0000.0001) // =======================================================
 cg2d: Sum(rhs),rhsMax =  -9.76149188888479E+02  1.28631309705851E+00
(PID.TID 0000.0001)                    cg2d_init_res =    2.97297627252277E+00
(PID.TID 0000.0001)                       cg2d_iters =    24
(PID.TID 0000.0001)                         cg2d_res =    1.63611338088509E-13
(PID.TID 0000.0001) // =======================================================
(PID.TID 0000.0001) // Begin MONITOR dynamic field statistics
(PID.TID 0000.0001) // =======================================================
(PID.TID 0000.0001) %MON time_tsnumber                =                    17
(PID.TID 0000.0001) %MON time_secondsf                =   7.6500000000000E+03
(PID.TID 0000.0001) %MON dynstat_eta_max              =   2.1920934380495E+01
(PID.TID 0000.0001) %MON dynstat_eta_min              =  -2.3635256713578E+01
(PID.TID 0000.0001) %MON dynstat_eta_mean             =   2.0319026122791E+00
(PID.TID 0000.0001) %MON dynstat_eta_sd               =   5.7293041363715E+00
(PID.TID 0000.0001) %MON dynstat_eta_del2             =   8.7675394116937E-02
(PID.TID 0000.0001) %MON dynstat_uvel_max             =   0.0000000000000E+00
(PID.TID 0000.0001) %MON dynstat_uvel_min             =   0.0000000000000E+00
(PID.TID 0000.0001) %MON dynstat_uvel_mean            =   0.0000000000000E+00
(PID.TID 0000.0001) %MON dynstat_uvel_sd              =   0.0000000000000E+00
(PID.TID 0000.0001) %MON dynstat_uvel_del2            =   0.0000000000000E+00
(PID.TID 0000.0001) %MON dynstat_vvel_max             =  -6.5228235762075E-29
(PID.TID 0000.0001) %MON dynstat_vvel_min             =  -8.7831876826839E-02
(PID.TID 0000.0001) %MON dynstat_vvel_mean            =  -9.3581056868368E-03
(PID.TID 0000.0001) %MON dynstat_vvel_sd              =   2.2844169634069E-02
(PID.TID 0000.0001) %MON dynstat_vvel_del2            =   2.2021875466620E-04
(PID.TID 0000.0001) %MON dynstat_wvel_max             =   3.2736155605268E-03
(PID.TID 0000.0001) %MON dynstat_wvel_min             =  -9.9137405529616E-03
(PID.TID 0000.0001) %MON dynstat_wvel_mean            =  -4.6313670934948E-18
(PID.TID 0000.0001) %MON dynstat_wvel_sd              =   1.6673164322807E-03
(PID.TID 0000.0001) %MON dynstat_wvel_del2            =   1.9014920958087E-05
(PID.TID 0000.0001) %MON dynstat_theta_max            =   3.0000000000000E+02
(PID.TID 0000.0001) %MON dynstat_theta_min            =   3.0000000000000E+02
(PID.TID 0000.0001) %MON dynstat_theta_mean           =   3.0000000000000E+02
(PID.TID 0000.0001) %MON dynstat_theta_sd             =   2.0463630789891E-12
(PID.TID 0000.0001) %MON dynstat_theta_del2           =   0.0000000000000E+00
(PID.TID 0000.0001) %MON dynstat_salt_max             =   0.0000000000000E+00
(PID.TID 0000.0001) %MON dynstat_salt_min             =   0.0000000000000E+00
(PID.TID 0000.0001) %MON dynstat_salt_mean            =   0.0000000000000E+00
(PID.TID 0000.0001) %MON dynstat_salt_sd              =   0.0000000000000E+00
(PID.TID 0000.0001) %MON dynstat_salt_del2            =   0.0000000000000E+00
(PID.TID 0000.0001) %MON advcfl_uvel_max              =   0.0000000000000E+00
(PID.TID 0000.0001) %MON advcfl_vvel_max              =   1.2640240750746E-04
(PID.TID 0000.0001) %MON advcfl_wvel_max              =   8.9223664976654E-05
(PID.TID 0000.0001) %MON advcfl_W_hf_max              =   0.0000000000000E+00
(PID.TID 0000.0001) %MON pe_b_mean                    =   1.8476777056415E-04
(PID.TID 0000.0001) %MON ke_max                       =   3.8496598094021E-03
(PID.TID 0000.0001) %MON ke_mean                      =   3.0465392563238E-04
(PID.TID 0000.0001) %MON ke_vol                       =   5.0990436378178E+19
(PID.TID 0000.0001) %MON vort_r_min                   =   0.0000000000000E+00
(PID.TID 0000.0001) %MON vort_r_max                   =   0.0000000000000E+00
(PID.TID 0000.0001) %MON vort_a_mean                  =  -2.4804158231269E-21
(PID.TID 0000.0001) %MON vort_a_sd                    =   8.3955319514375E-05
(PID.TID 0000.0001) %MON vort_p_mean                  =  -2.4804158231269E-21
(PID.TID 0000.0001) %MON vort_p_sd                    =   8.3955319514375E-05
(PID.TID 0000.0001) %MON surfExpan_theta_mean         =  -3.2453825949656E-15
(PID.TID 0000.0001) %MON surfExpan_salt_mean          =   0.0000000000000E+00
(PID.TID 0000.0001) %MON surfExpan_Heat_mean          =   1.4762636118047E-13
(PID.TID 0000.0001) %MON En_Budget_T2PE_mean          =   0.0000000000000E+00
(PID.TID 0000.0001) // =======================================================
(PID.TID 0000.0001) // End MONITOR dynamic field statistics
(PID.TID 0000.0001) // =======================================================
 cg2d: Sum(rhs),rhsMax =  -9.55050104354267E+02  1.31473048442757E+00
(PID.TID 0000.0001)                    cg2d_init_res =    2.91924136689478E+00
(PID.TID 0000.0001)                       cg2d_iters =    24
(PID.TID 0000.0001)                         cg2d_res =    1.62608258364519E-13
(PID.TID 0000.0001) // =======================================================
(PID.TID 0000.0001) // Begin MONITOR dynamic field statistics
(PID.TID 0000.0001) // =======================================================
(PID.TID 0000.0001) %MON time_tsnumber                =                    18
(PID.TID 0000.0001) %MON time_secondsf                =   8.1000000000000E+03
(PID.TID 0000.0001) %MON dynstat_eta_max              =   2.1451287580748E+01
(PID.TID 0000.0001) %MON dynstat_eta_min              =  -2.6911484077918E+01
(PID.TID 0000.0001) %MON dynstat_eta_mean             =   2.0319026122790E+00
(PID.TID 0000.0001) %MON dynstat_eta_sd               =   5.8104379655489E+00
(PID.TID 0000.0001) %MON dynstat_eta_del2             =   8.6742226130688E-02
(PID.TID 0000.0001) %MON dynstat_uvel_max             =   0.0000000000000E+00
(PID.TID 0000.0001) %MON dynstat_uvel_min             =   0.0000000000000E+00
(PID.TID 0000.0001) %MON dynstat_uvel_mean            =   0.0000000000000E+00
(PID.TID 0000.0001) %MON dynstat_uvel_sd              =   0.0000000000000E+00
(PID.TID 0000.0001) %MON dynstat_uvel_del2            =   0.0000000000000E+00
(PID.TID 0000.0001) %MON dynstat_vvel_max             =  -3.3898359410022E-28
(PID.TID 0000.0001) %MON dynstat_vvel_min             =  -8.4780406908388E-02
(PID.TID 0000.0001) %MON dynstat_vvel_mean            =  -9.4673065789571E-03
(PID.TID 0000.0001) %MON dynstat_vvel_sd              =   2.2364268564946E-02
(PID.TID 0000.0001) %MON dynstat_vvel_del2            =   1.8804123652054E-04
(PID.TID 0000.0001) %MON dynstat_wvel_max             =   3.2127925663537E-03
(PID.TID 0000.0001) %MON dynstat_wvel_min             =  -7.2805052540888E-03
(PID.TID 0000.0001) %MON dynstat_wvel_mean            =  -9.8080421308305E-21
(PID.TID 0000.0001) %MON dynstat_wvel_sd              =   1.5972256302421E-03
(PID.TID 0000.0001) %MON dynstat_wvel_del2            =   1.8430091655675E-05
(PID.TID 0000.0001) %MON dynstat_theta_max            =   3.0000000000000E+02
(PID.TID 0000.0001) %MON dynstat_theta_min            =   3.0000000000000E+02
(PID.TID 0000.0001) %MON dynstat_theta_mean           =   3.0000000000000E+02
(PID.TID 0000.0001) %MON dynstat_theta_sd             =   2.0463630789891E-12
(PID.TID 0000.0001) %MON dynstat_theta_del2           =   0.0000000000000E+00
(PID.TID 0000.0001) %MON dynstat_salt_max             =   0.0000000000000E+00
(PID.TID 0000.0001) %MON dynstat_salt_min             =   0.0000000000000E+00
(PID.TID 0000.0001) %MON dynstat_salt_mean            =   0.0000000000000E+00
(PID.TID 0000.0001) %MON dynstat_salt_sd              =   0.0000000000000E+00
(PID.TID 0000.0001) %MON dynstat_salt_del2            =   0.0000000000000E+00
(PID.TID 0000.0001) %MON advcfl_uvel_max              =   0.0000000000000E+00
(PID.TID 0000.0001) %MON advcfl_vvel_max              =   1.2201091368923E-04
(PID.TID 0000.0001) %MON advcfl_wvel_max              =   6.5524547286799E-05
(PID.TID 0000.0001) %MON advcfl_W_hf_max              =   0.0000000000000E+00
(PID.TID 0000.0001) %MON pe_b_mean                    =   1.8944908788639E-04
(PID.TID 0000.0001) %MON ke_max                       =   3.5272212850460E-03
(PID.TID 0000.0001) %MON ke_mean                      =   2.9483598452112E-04
(PID.TID 0000.0001) %MON ke_vol                       =   5.0990436378178E+19
(PID.TID 0000.0001) %MON vort_r_min                   =   0.0000000000000E+00
(PID.TID 0000.0001) %MON vort_r_max                   =   0.0000000000000E+00
(PID.TID 0000.0001) %MON vort_a_mean                  =  -2.4804158231269E-21
(PID.TID 0000.0001) %MON vort_a_sd                    =   8.3955319514375E-05
(PID.TID 0000.0001) %MON vort_p_mean                  =  -2.4804158231269E-21
(PID.TID 0000.0001) %MON vort_p_sd                    =   8.3955319514375E-05
(PID.TID 0000.0001) %MON surfExpan_theta_mean         =   2.8316347487800E-16
(PID.TID 0000.0001) %MON surfExpan_salt_mean          =   0.0000000000000E+00
(PID.TID 0000.0001) %MON surfExpan_Heat_mean          =   2.3666515970470E-14
(PID.TID 0000.0001) %MON En_Budget_T2PE_mean          =   0.0000000000000E+00
(PID.TID 0000.0001) // =======================================================
(PID.TID 0000.0001) // End MONITOR dynamic field statistics
(PID.TID 0000.0001) // =======================================================
 cg2d: Sum(rhs),rhsMax =  -9.48050976975930E+02  1.32443667782025E+00
(PID.TID 0000.0001)                    cg2d_init_res =    2.91733151578127E+00
(PID.TID 0000.0001)                       cg2d_iters =    24
(PID.TID 0000.0001)                         cg2d_res =    1.75779334292141E-13
(PID.TID 0000.0001) // =======================================================
(PID.TID 0000.0001) // Begin MONITOR dynamic field statistics
(PID.TID 0000.0001) // =======================================================
(PID.TID 0000.0001) %MON time_tsnumber                =                    19
(PID.TID 0000.0001) %MON time_secondsf                =   8.5500000000000E+03
(PID.TID 0000.0001) %MON dynstat_eta_max              =   2.0913353957143E+01
(PID.TID 0000.0001) %MON dynstat_eta_min              =  -2.9043365595790E+01
(PID.TID 0000.0001) %MON dynstat_eta_mean             =   2.0319026122790E+00
(PID.TID 0000.0001) %MON dynstat_eta_sd               =   5.8879274587818E+00
(PID.TID 0000.0001) %MON dynstat_eta_del2             =   8.4369854007029E-02
(PID.TID 0000.0001) %MON dynstat_uvel_max             =   0.0000000000000E+00
(PID.TID 0000.0001) %MON dynstat_uvel_min             =   0.0000000000000E+00
(PID.TID 0000.0001) %MON dynstat_uvel_mean            =   0.0000000000000E+00
(PID.TID 0000.0001) %MON dynstat_uvel_sd              =   0.0000000000000E+00
(PID.TID 0000.0001) %MON dynstat_uvel_del2            =   0.0000000000000E+00
(PID.TID 0000.0001) %MON dynstat_vvel_max             =  -1.6674856358488E-27
(PID.TID 0000.0001) %MON dynstat_vvel_min             =  -8.1545225715159E-02
(PID.TID 0000.0001) %MON dynstat_vvel_mean            =  -9.5460793312780E-03
(PID.TID 0000.0001) %MON dynstat_vvel_sd              =   2.1897995994786E-02
(PID.TID 0000.0001) %MON dynstat_vvel_del2            =   1.8798634258066E-04
(PID.TID 0000.0001) %MON dynstat_wvel_max             =   3.0872032212648E-03
(PID.TID 0000.0001) %MON dynstat_wvel_min             =  -6.6391441511952E-03
(PID.TID 0000.0001) %MON dynstat_wvel_mean            =   3.2891130182151E-18
(PID.TID 0000.0001) %MON dynstat_wvel_sd              =   1.5429961812235E-03
(PID.TID 0000.0001) %MON dynstat_wvel_del2            =   2.1883820612620E-05
(PID.TID 0000.0001) %MON dynstat_theta_max            =   3.0000000000000E+02
(PID.TID 0000.0001) %MON dynstat_theta_min            =   3.0000000000000E+02
(PID.TID 0000.0001) %MON dynstat_theta_mean           =   3.0000000000000E+02
(PID.TID 0000.0001) %MON dynstat_theta_sd             =   2.0463630789891E-12
(PID.TID 0000.0001) %MON dynstat_theta_del2           =   0.0000000000000E+00
(PID.TID 0000.0001) %MON dynstat_salt_max             =   0.0000000000000E+00
(PID.TID 0000.0001) %MON dynstat_salt_min             =   0.0000000000000E+00
(PID.TID 0000.0001) %MON dynstat_salt_mean            =   0.0000000000000E+00
(PID.TID 0000.0001) %MON dynstat_salt_sd              =   0.0000000000000E+00
(PID.TID 0000.0001) %MON dynstat_salt_del2            =   0.0000000000000E+00
(PID.TID 0000.0001) %MON advcfl_uvel_max              =   0.0000000000000E+00
(PID.TID 0000.0001) %MON advcfl_vvel_max              =   1.1735503354274E-04
(PID.TID 0000.0001) %MON advcfl_wvel_max              =   5.9752297360757E-05
(PID.TID 0000.0001) %MON advcfl_W_hf_max              =   0.0000000000000E+00
(PID.TID 0000.0001) %MON pe_b_mean                    =   1.9398158992831E-04
(PID.TID 0000.0001) %MON ke_max                       =   3.2938539519167E-03
(PID.TID 0000.0001) %MON ke_mean                      =   2.8526763472686E-04
(PID.TID 0000.0001) %MON ke_vol                       =   5.0990436378178E+19
(PID.TID 0000.0001) %MON vort_r_min                   =   0.0000000000000E+00
(PID.TID 0000.0001) %MON vort_r_max                   =   0.0000000000000E+00
(PID.TID 0000.0001) %MON vort_a_mean                  =  -2.4804158231269E-21
(PID.TID 0000.0001) %MON vort_a_sd                    =   8.3955319514375E-05
(PID.TID 0000.0001) %MON vort_p_mean                  =  -2.4804158231269E-21
(PID.TID 0000.0001) %MON vort_p_sd                    =   8.3955319514375E-05
(PID.TID 0000.0001) %MON surfExpan_theta_mean         =   1.3679994050227E-15
(PID.TID 0000.0001) %MON surfExpan_salt_mean          =   0.0000000000000E+00
(PID.TID 0000.0001) %MON surfExpan_Heat_mean          =   2.7590428198951E-14
(PID.TID 0000.0001) %MON En_Budget_T2PE_mean          =   0.0000000000000E+00
(PID.TID 0000.0001) // =======================================================
(PID.TID 0000.0001) // End MONITOR dynamic field statistics
(PID.TID 0000.0001) // =======================================================
 cg2d: Sum(rhs),rhsMax =  -9.33993519879273E+02  1.34437066170711E+00
(PID.TID 0000.0001)                    cg2d_init_res =    2.89969163301430E+00
(PID.TID 0000.0001)                       cg2d_iters =    24
(PID.TID 0000.0001)                         cg2d_res =    1.81417320479841E-13
(PID.TID 0000.0001) // =======================================================
(PID.TID 0000.0001) // Begin MONITOR dynamic field statistics
(PID.TID 0000.0001) // =======================================================
(PID.TID 0000.0001) %MON time_tsnumber                =                    20
(PID.TID 0000.0001) %MON time_secondsf                =   9.0000000000000E+03
(PID.TID 0000.0001) %MON dynstat_eta_max              =   2.0457440304621E+01
(PID.TID 0000.0001) %MON dynstat_eta_min              =  -3.0116319359504E+01
(PID.TID 0000.0001) %MON dynstat_eta_mean             =   2.0319026122791E+00
(PID.TID 0000.0001) %MON dynstat_eta_sd               =   5.9554737744467E+00
(PID.TID 0000.0001) %MON dynstat_eta_del2             =   8.0889591554760E-02
(PID.TID 0000.0001) %MON dynstat_uvel_max             =   0.0000000000000E+00
(PID.TID 0000.0001) %MON dynstat_uvel_min             =   0.0000000000000E+00
(PID.TID 0000.0001) %MON dynstat_uvel_mean            =   0.0000000000000E+00
(PID.TID 0000.0001) %MON dynstat_uvel_sd              =   0.0000000000000E+00
(PID.TID 0000.0001) %MON dynstat_uvel_del2            =   0.0000000000000E+00
(PID.TID 0000.0001) %MON dynstat_vvel_max             =  -7.8162086244824E-27
(PID.TID 0000.0001) %MON dynstat_vvel_min             =  -7.8827518321465E-02
(PID.TID 0000.0001) %MON dynstat_vvel_mean            =  -9.5991269072248E-03
(PID.TID 0000.0001) %MON dynstat_vvel_sd              =   2.1462234550158E-02
(PID.TID 0000.0001) %MON dynstat_vvel_del2            =   1.8853568350123E-04
(PID.TID 0000.0001) %MON dynstat_wvel_max             =   3.0520979808432E-03
(PID.TID 0000.0001) %MON dynstat_wvel_min             =  -6.2816641942588E-03
(PID.TID 0000.0001) %MON dynstat_wvel_mean            =  -6.8533548505750E-19
(PID.TID 0000.0001) %MON dynstat_wvel_sd              =   1.5043495026630E-03
(PID.TID 0000.0001) %MON dynstat_wvel_del2            =   2.4993619673414E-05
(PID.TID 0000.0001) %MON dynstat_theta_max            =   3.0000000000000E+02
(PID.TID 0000.0001) %MON dynstat_theta_min            =   3.0000000000000E+02
(PID.TID 0000.0001) %MON dynstat_theta_mean           =   3.0000000000000E+02
(PID.TID 0000.0001) %MON dynstat_theta_sd             =   2.0463630789891E-12
(PID.TID 0000.0001) %MON dynstat_theta_del2           =   0.0000000000000E+00
(PID.TID 0000.0001) %MON dynstat_salt_max             =   0.0000000000000E+00
(PID.TID 0000.0001) %MON dynstat_salt_min             =   0.0000000000000E+00
(PID.TID 0000.0001) %MON dynstat_salt_mean            =   0.0000000000000E+00
(PID.TID 0000.0001) %MON dynstat_salt_sd              =   0.0000000000000E+00
(PID.TID 0000.0001) %MON dynstat_salt_del2            =   0.0000000000000E+00
(PID.TID 0000.0001) %MON advcfl_uvel_max              =   0.0000000000000E+00
(PID.TID 0000.0001) %MON advcfl_vvel_max              =   1.1344387087749E-04
(PID.TID 0000.0001) %MON advcfl_wvel_max              =   5.6534977748330E-05
(PID.TID 0000.0001) %MON advcfl_W_hf_max              =   0.0000000000000E+00
(PID.TID 0000.0001) %MON pe_b_mean                    =   1.9798148051954E-04
(PID.TID 0000.0001) %MON ke_max                       =   3.0649002188312E-03
(PID.TID 0000.0001) %MON ke_mean                      =   2.7632987488042E-04
(PID.TID 0000.0001) %MON ke_vol                       =   5.0990436378178E+19
(PID.TID 0000.0001) %MON vort_r_min                   =   0.0000000000000E+00
(PID.TID 0000.0001) %MON vort_r_max                   =   0.0000000000000E+00
(PID.TID 0000.0001) %MON vort_a_mean                  =  -2.4804158231269E-21
(PID.TID 0000.0001) %MON vort_a_sd                    =   8.3955319514375E-05
(PID.TID 0000.0001) %MON vort_p_mean                  =  -2.4804158231269E-21
(PID.TID 0000.0001) %MON vort_p_sd                    =   8.3955319514375E-05
(PID.TID 0000.0001) %MON surfExpan_theta_mean         =  -1.8076125700712E-15
(PID.TID 0000.0001) %MON surfExpan_salt_mean          =   0.0000000000000E+00
(PID.TID 0000.0001) %MON surfExpan_Heat_mean          =  -1.8300927479919E-13
(PID.TID 0000.0001) %MON En_Budget_T2PE_mean          =   0.0000000000000E+00
(PID.TID 0000.0001) // =======================================================
(PID.TID 0000.0001) // End MONITOR dynamic field statistics
(PID.TID 0000.0001) // =======================================================
 cg2d: Sum(rhs),rhsMax =  -9.24202971005669E+02  1.35861225914908E+00
(PID.TID 0000.0001)                    cg2d_init_res =    2.89848275756618E+00
(PID.TID 0000.0001)                       cg2d_iters =    24
(PID.TID 0000.0001)                         cg2d_res =    1.73524571527276E-13
(PID.TID 0000.0001) // =======================================================
(PID.TID 0000.0001) // Begin MONITOR dynamic field statistics
(PID.TID 0000.0001) // =======================================================
(PID.TID 0000.0001) %MON time_tsnumber                =                    21
(PID.TID 0000.0001) %MON time_secondsf                =   9.4500000000000E+03
(PID.TID 0000.0001) %MON dynstat_eta_max              =   2.0020264298230E+01
(PID.TID 0000.0001) %MON dynstat_eta_min              =  -3.0253307797747E+01
(PID.TID 0000.0001) %MON dynstat_eta_mean             =   2.0319026122790E+00
(PID.TID 0000.0001) %MON dynstat_eta_sd               =   6.0101423764539E+00
(PID.TID 0000.0001) %MON dynstat_eta_del2             =   7.7062739450965E-02
(PID.TID 0000.0001) %MON dynstat_uvel_max             =   0.0000000000000E+00
(PID.TID 0000.0001) %MON dynstat_uvel_min             =   0.0000000000000E+00
(PID.TID 0000.0001) %MON dynstat_uvel_mean            =   0.0000000000000E+00
(PID.TID 0000.0001) %MON dynstat_uvel_sd              =   0.0000000000000E+00
(PID.TID 0000.0001) %MON dynstat_uvel_del2            =   0.0000000000000E+00
(PID.TID 0000.0001) %MON dynstat_vvel_max             =  -3.5056346940878E-26
(PID.TID 0000.0001) %MON dynstat_vvel_min             =  -7.6314187006231E-02
(PID.TID 0000.0001) %MON dynstat_vvel_mean            =  -9.6308511698606E-03
(PID.TID 0000.0001) %MON dynstat_vvel_sd              =   2.1066266672585E-02
(PID.TID 0000.0001) %MON dynstat_vvel_del2            =   1.8834521941786E-04
(PID.TID 0000.0001) %MON dynstat_wvel_max             =   2.9262900077815E-03
(PID.TID 0000.0001) %MON dynstat_wvel_min             =  -6.0932349864755E-03
(PID.TID 0000.0001) %MON dynstat_wvel_mean            =  -1.7882076811493E-18
(PID.TID 0000.0001) %MON dynstat_wvel_sd              =   1.4790400584810E-03
(PID.TID 0000.0001) %MON dynstat_wvel_del2            =   2.7502453225716E-05
(PID.TID 0000.0001) %MON dynstat_theta_max            =   3.0000000000000E+02
(PID.TID 0000.0001) %MON dynstat_theta_min            =   3.0000000000000E+02
(PID.TID 0000.0001) %MON dynstat_theta_mean           =   3.0000000000000E+02
(PID.TID 0000.0001) %MON dynstat_theta_sd             =   2.0463630789891E-12
(PID.TID 0000.0001) %MON dynstat_theta_del2           =   0.0000000000000E+00
(PID.TID 0000.0001) %MON dynstat_salt_max             =   0.0000000000000E+00
(PID.TID 0000.0001) %MON dynstat_salt_min             =   0.0000000000000E+00
(PID.TID 0000.0001) %MON dynstat_salt_mean            =   0.0000000000000E+00
(PID.TID 0000.0001) %MON dynstat_salt_sd              =   0.0000000000000E+00
(PID.TID 0000.0001) %MON dynstat_salt_del2            =   0.0000000000000E+00
(PID.TID 0000.0001) %MON advcfl_uvel_max              =   0.0000000000000E+00
(PID.TID 0000.0001) %MON advcfl_vvel_max              =   1.0982683409555E-04
(PID.TID 0000.0001) %MON advcfl_wvel_max              =   5.4839114878280E-05
(PID.TID 0000.0001) %MON advcfl_W_hf_max              =   0.0000000000000E+00
(PID.TID 0000.0001) %MON pe_b_mean                    =   2.0125219805517E-04
(PID.TID 0000.0001) %MON ke_max                       =   2.8710148241220E-03
(PID.TID 0000.0001) %MON ke_mean                      =   2.6821657265954E-04
(PID.TID 0000.0001) %MON ke_vol                       =   5.0990436378178E+19
(PID.TID 0000.0001) %MON vort_r_min                   =   0.0000000000000E+00
(PID.TID 0000.0001) %MON vort_r_max                   =   0.0000000000000E+00
(PID.TID 0000.0001) %MON vort_a_mean                  =  -2.4804158231269E-21
(PID.TID 0000.0001) %MON vort_a_sd                    =   8.3955319514375E-05
(PID.TID 0000.0001) %MON vort_p_mean                  =  -2.4804158231269E-21
(PID.TID 0000.0001) %MON vort_p_sd                    =   8.3955319514375E-05
(PID.TID 0000.0001) %MON surfExpan_theta_mean         =  -2.5792599246814E-16
(PID.TID 0000.0001) %MON surfExpan_salt_mean          =   0.0000000000000E+00
(PID.TID 0000.0001) %MON surfExpan_Heat_mean          =   6.8110225960709E-15
(PID.TID 0000.0001) %MON En_Budget_T2PE_mean          =   0.0000000000000E+00
(PID.TID 0000.0001) // =======================================================
(PID.TID 0000.0001) // End MONITOR dynamic field statistics
(PID.TID 0000.0001) // =======================================================
 cg2d: Sum(rhs),rhsMax =  -9.17372529829999E+02  1.36872801999312E+00
(PID.TID 0000.0001)                    cg2d_init_res =    2.90766897663467E+00
(PID.TID 0000.0001)                       cg2d_iters =    24
(PID.TID 0000.0001)                         cg2d_res =    2.28848571955257E-13
(PID.TID 0000.0001) // =======================================================
(PID.TID 0000.0001) // Begin MONITOR dynamic field statistics
(PID.TID 0000.0001) // =======================================================
(PID.TID 0000.0001) %MON time_tsnumber                =                    22
(PID.TID 0000.0001) %MON time_secondsf                =   9.9000000000000E+03
(PID.TID 0000.0001) %MON dynstat_eta_max              =   1.9569450459272E+01
(PID.TID 0000.0001) %MON dynstat_eta_min              =  -2.9604930769344E+01
(PID.TID 0000.0001) %MON dynstat_eta_mean             =   2.0319026122790E+00
(PID.TID 0000.0001) %MON dynstat_eta_sd               =   6.0513795503579E+00
(PID.TID 0000.0001) %MON dynstat_eta_del2             =   7.3322755092297E-02
(PID.TID 0000.0001) %MON dynstat_uvel_max             =   0.0000000000000E+00
(PID.TID 0000.0001) %MON dynstat_uvel_min             =   0.0000000000000E+00
(PID.TID 0000.0001) %MON dynstat_uvel_mean            =   0.0000000000000E+00
(PID.TID 0000.0001) %MON dynstat_uvel_sd              =   0.0000000000000E+00
(PID.TID 0000.0001) %MON dynstat_uvel_del2            =   0.0000000000000E+00
(PID.TID 0000.0001) %MON dynstat_vvel_max             =   2.6126810114526E-03
(PID.TID 0000.0001) %MON dynstat_vvel_min             =  -7.3894371186170E-02
(PID.TID 0000.0001) %MON dynstat_vvel_mean            =  -9.6452473922389E-03
(PID.TID 0000.0001) %MON dynstat_vvel_sd              =   2.0713125286527E-02
(PID.TID 0000.0001) %MON dynstat_vvel_del2            =   1.9066852895664E-04
(PID.TID 0000.0001) %MON dynstat_wvel_max             =   2.9025818102940E-03
(PID.TID 0000.0001) %MON dynstat_wvel_min             =  -5.7923191663450E-03
(PID.TID 0000.0001) %MON dynstat_wvel_mean            =   1.3675832842330E-18
(PID.TID 0000.0001) %MON dynstat_wvel_sd              =   1.4636984186928E-03
(PID.TID 0000.0001) %MON dynstat_wvel_del2            =   2.9032872772537E-05
(PID.TID 0000.0001) %MON dynstat_theta_max            =   3.0000000000000E+02
(PID.TID 0000.0001) %MON dynstat_theta_min            =   3.0000000000000E+02
(PID.TID 0000.0001) %MON dynstat_theta_mean           =   3.0000000000000E+02
(PID.TID 0000.0001) %MON dynstat_theta_sd             =   2.0463630789891E-12
(PID.TID 0000.0001) %MON dynstat_theta_del2           =   0.0000000000000E+00
(PID.TID 0000.0001) %MON dynstat_salt_max             =   0.0000000000000E+00
(PID.TID 0000.0001) %MON dynstat_salt_min             =   0.0000000000000E+00
(PID.TID 0000.0001) %MON dynstat_salt_mean            =   0.0000000000000E+00
(PID.TID 0000.0001) %MON dynstat_salt_sd              =   0.0000000000000E+00
(PID.TID 0000.0001) %MON dynstat_salt_del2            =   0.0000000000000E+00
(PID.TID 0000.0001) %MON advcfl_uvel_max              =   0.0000000000000E+00
(PID.TID 0000.0001) %MON advcfl_vvel_max              =   1.0634437924623E-04
(PID.TID 0000.0001) %MON advcfl_wvel_max              =   5.2130872497105E-05
(PID.TID 0000.0001) %MON advcfl_W_hf_max              =   0.0000000000000E+00
(PID.TID 0000.0001) %MON pe_b_mean                    =   2.0373911344138E-04
(PID.TID 0000.0001) %MON ke_max                       =   2.7017109645109E-03
(PID.TID 0000.0001) %MON ke_mean                      =   2.6097976145239E-04
(PID.TID 0000.0001) %MON ke_vol                       =   5.0990436378178E+19
(PID.TID 0000.0001) %MON vort_r_min                   =   0.0000000000000E+00
(PID.TID 0000.0001) %MON vort_r_max                   =   0.0000000000000E+00
(PID.TID 0000.0001) %MON vort_a_mean                  =  -2.4804158231269E-21
(PID.TID 0000.0001) %MON vort_a_sd                    =   8.3955319514375E-05
(PID.TID 0000.0001) %MON vort_p_mean                  =  -2.4804158231269E-21
(PID.TID 0000.0001) %MON vort_p_sd                    =   8.3955319514375E-05
(PID.TID 0000.0001) %MON surfExpan_theta_mean         =  -2.3287343600662E-16
(PID.TID 0000.0001) %MON surfExpan_salt_mean          =   0.0000000000000E+00
(PID.TID 0000.0001) %MON surfExpan_Heat_mean          =   1.1746492382563E-13
(PID.TID 0000.0001) %MON En_Budget_T2PE_mean          =   0.0000000000000E+00
(PID.TID 0000.0001) // =======================================================
(PID.TID 0000.0001) // End MONITOR dynamic field statistics
(PID.TID 0000.0001) // =======================================================
 cg2d: Sum(rhs),rhsMax =  -9.04998564140205E+02  1.38744251770518E+00
(PID.TID 0000.0001)                    cg2d_init_res =    2.89862553545580E+00
(PID.TID 0000.0001)                       cg2d_iters =    24
(PID.TID 0000.0001)                         cg2d_res =    2.29894029369577E-13
(PID.TID 0000.0001) // =======================================================
(PID.TID 0000.0001) // Begin MONITOR dynamic field statistics
(PID.TID 0000.0001) // =======================================================
(PID.TID 0000.0001) %MON time_tsnumber                =                    23
(PID.TID 0000.0001) %MON time_secondsf                =   1.0350000000000E+04
(PID.TID 0000.0001) %MON dynstat_eta_max              =   1.9220746939696E+01
(PID.TID 0000.0001) %MON dynstat_eta_min              =  -2.8337809855904E+01
(PID.TID 0000.0001) %MON dynstat_eta_mean             =   2.0319026122791E+00
(PID.TID 0000.0001) %MON dynstat_eta_sd               =   6.0801150870722E+00
(PID.TID 0000.0001) %MON dynstat_eta_del2             =   6.9770658560202E-02
(PID.TID 0000.0001) %MON dynstat_uvel_max             =   0.0000000000000E+00
(PID.TID 0000.0001) %MON dynstat_uvel_min             =   0.0000000000000E+00
(PID.TID 0000.0001) %MON dynstat_uvel_mean            =   0.0000000000000E+00
(PID.TID 0000.0001) %MON dynstat_uvel_sd              =   0.0000000000000E+00
(PID.TID 0000.0001) %MON dynstat_uvel_del2            =   0.0000000000000E+00
(PID.TID 0000.0001) %MON dynstat_vvel_max             =   6.7138020607642E-03
(PID.TID 0000.0001) %MON dynstat_vvel_min             =  -7.1879257711421E-02
(PID.TID 0000.0001) %MON dynstat_vvel_mean            =  -9.6458329794595E-03
(PID.TID 0000.0001) %MON dynstat_vvel_sd              =   2.0401328919966E-02
(PID.TID 0000.0001) %MON dynstat_vvel_del2            =   2.0425488974577E-04
(PID.TID 0000.0001) %MON dynstat_wvel_max             =   2.8158242520888E-03
(PID.TID 0000.0001) %MON dynstat_wvel_min             =  -5.6353406566581E-03
(PID.TID 0000.0001) %MON dynstat_wvel_mean            =   1.8996888724992E-18
(PID.TID 0000.0001) %MON dynstat_wvel_sd              =   1.4547380151233E-03
(PID.TID 0000.0001) %MON dynstat_wvel_del2            =   2.9800410070728E-05
(PID.TID 0000.0001) %MON dynstat_theta_max            =   3.0000000000000E+02
(PID.TID 0000.0001) %MON dynstat_theta_min            =   3.0000000000000E+02
(PID.TID 0000.0001) %MON dynstat_theta_mean           =   3.0000000000000E+02
(PID.TID 0000.0001) %MON dynstat_theta_sd             =   2.0463630789891E-12
(PID.TID 0000.0001) %MON dynstat_theta_del2           =   0.0000000000000E+00
(PID.TID 0000.0001) %MON dynstat_salt_max             =   0.0000000000000E+00
(PID.TID 0000.0001) %MON dynstat_salt_min             =   0.0000000000000E+00
(PID.TID 0000.0001) %MON dynstat_salt_mean            =   0.0000000000000E+00
(PID.TID 0000.0001) %MON dynstat_salt_sd              =   0.0000000000000E+00
(PID.TID 0000.0001) %MON dynstat_salt_del2            =   0.0000000000000E+00
(PID.TID 0000.0001) %MON advcfl_uvel_max              =   0.0000000000000E+00
(PID.TID 0000.0001) %MON advcfl_vvel_max              =   1.0344434791580E-04
(PID.TID 0000.0001) %MON advcfl_wvel_max              =   5.0718065909923E-05
(PID.TID 0000.0001) %MON advcfl_W_hf_max              =   0.0000000000000E+00
(PID.TID 0000.0001) %MON pe_b_mean                    =   2.0548213848915E-04
(PID.TID 0000.0001) %MON ke_max                       =   2.5395864036971E-03
(PID.TID 0000.0001) %MON ke_mean                      =   2.5457702700378E-04
(PID.TID 0000.0001) %MON ke_vol                       =   5.0990436378178E+19
(PID.TID 0000.0001) %MON vort_r_min                   =   0.0000000000000E+00
(PID.TID 0000.0001) %MON vort_r_max                   =   0.0000000000000E+00
(PID.TID 0000.0001) %MON vort_a_mean                  =  -2.4804158231269E-21
(PID.TID 0000.0001) %MON vort_a_sd                    =   8.3955319514375E-05
(PID.TID 0000.0001) %MON vort_p_mean                  =  -2.4804158231269E-21
(PID.TID 0000.0001) %MON vort_p_sd                    =   8.3955319514375E-05
(PID.TID 0000.0001) %MON surfExpan_theta_mean         =  -1.1149982640903E-15
(PID.TID 0000.0001) %MON surfExpan_salt_mean          =   0.0000000000000E+00
(PID.TID 0000.0001) %MON surfExpan_Heat_mean          =   1.2898439702919E-14
(PID.TID 0000.0001) %MON En_Budget_T2PE_mean          =   0.0000000000000E+00
(PID.TID 0000.0001) // =======================================================
(PID.TID 0000.0001) // End MONITOR dynamic field statistics
(PID.TID 0000.0001) // =======================================================
 cg2d: Sum(rhs),rhsMax =  -9.04460867379657E+02  1.38826734426669E+00
(PID.TID 0000.0001)                    cg2d_init_res =    2.92595266779518E+00
(PID.TID 0000.0001)                       cg2d_iters =    24
(PID.TID 0000.0001)                         cg2d_res =    2.44212318883821E-13
(PID.TID 0000.0001) // =======================================================
(PID.TID 0000.0001) // Begin MONITOR dynamic field statistics
(PID.TID 0000.0001) // =======================================================
(PID.TID 0000.0001) %MON time_tsnumber                =                    24
(PID.TID 0000.0001) %MON time_secondsf                =   1.0800000000000E+04
(PID.TID 0000.0001) %MON dynstat_eta_max              =   1.8769999685043E+01
(PID.TID 0000.0001) %MON dynstat_eta_min              =  -2.6622452886088E+01
(PID.TID 0000.0001) %MON dynstat_eta_mean             =   2.0319026122790E+00
(PID.TID 0000.0001) %MON dynstat_eta_sd               =   6.0980405731875E+00
(PID.TID 0000.0001) %MON dynstat_eta_del2             =   6.7501172387576E-02
(PID.TID 0000.0001) %MON dynstat_uvel_max             =   0.0000000000000E+00
(PID.TID 0000.0001) %MON dynstat_uvel_min             =   0.0000000000000E+00
(PID.TID 0000.0001) %MON dynstat_uvel_mean            =   0.0000000000000E+00
(PID.TID 0000.0001) %MON dynstat_uvel_sd              =   0.0000000000000E+00
(PID.TID 0000.0001) %MON dynstat_uvel_del2            =   0.0000000000000E+00
(PID.TID 0000.0001) %MON dynstat_vvel_max             =   9.9304783218868E-03
(PID.TID 0000.0001) %MON dynstat_vvel_min             =  -6.9727892775542E-02
(PID.TID 0000.0001) %MON dynstat_vvel_mean            =  -9.6356109282138E-03
(PID.TID 0000.0001) %MON dynstat_vvel_sd              =   2.0126653362146E-02
(PID.TID 0000.0001) %MON dynstat_vvel_del2            =   2.1319914738383E-04
(PID.TID 0000.0001) %MON dynstat_wvel_max             =   3.8119043773684E-03
(PID.TID 0000.0001) %MON dynstat_wvel_min             =  -5.3908719501923E-03
(PID.TID 0000.0001) %MON dynstat_wvel_mean            =  -1.1556962092175E-18
(PID.TID 0000.0001) %MON dynstat_wvel_sd              =   1.4490448999905E-03
(PID.TID 0000.0001) %MON dynstat_wvel_del2            =   2.9623464224311E-05
(PID.TID 0000.0001) %MON dynstat_theta_max            =   3.0000000000000E+02
(PID.TID 0000.0001) %MON dynstat_theta_min            =   3.0000000000000E+02
(PID.TID 0000.0001) %MON dynstat_theta_mean           =   3.0000000000000E+02
(PID.TID 0000.0001) %MON dynstat_theta_sd             =   2.0463630789891E-12
(PID.TID 0000.0001) %MON dynstat_theta_del2           =   0.0000000000000E+00
(PID.TID 0000.0001) %MON dynstat_salt_max             =   0.0000000000000E+00
(PID.TID 0000.0001) %MON dynstat_salt_min             =   0.0000000000000E+00
(PID.TID 0000.0001) %MON dynstat_salt_mean            =   0.0000000000000E+00
(PID.TID 0000.0001) %MON dynstat_salt_sd              =   0.0000000000000E+00
(PID.TID 0000.0001) %MON dynstat_salt_del2            =   0.0000000000000E+00
(PID.TID 0000.0001) %MON advcfl_uvel_max              =   0.0000000000000E+00
(PID.TID 0000.0001) %MON advcfl_vvel_max              =   1.0034823159508E-04
(PID.TID 0000.0001) %MON advcfl_wvel_max              =   4.8517847551731E-05
(PID.TID 0000.0001) %MON advcfl_W_hf_max              =   0.0000000000000E+00
(PID.TID 0000.0001) %MON pe_b_mean                    =   2.0657363529013E-04
(PID.TID 0000.0001) %MON ke_max                       =   2.4095936335493E-03
(PID.TID 0000.0001) %MON ke_mean                      =   2.4891359345762E-04
(PID.TID 0000.0001) %MON ke_vol                       =   5.0990436378178E+19
(PID.TID 0000.0001) %MON vort_r_min                   =   0.0000000000000E+00
(PID.TID 0000.0001) %MON vort_r_max                   =   0.0000000000000E+00
(PID.TID 0000.0001) %MON vort_a_mean                  =  -2.4804158231269E-21
(PID.TID 0000.0001) %MON vort_a_sd                    =   8.3955319514375E-05
(PID.TID 0000.0001) %MON vort_p_mean                  =  -2.4804158231269E-21
(PID.TID 0000.0001) %MON vort_p_sd                    =   8.3955319514375E-05
(PID.TID 0000.0001) %MON surfExpan_theta_mean         =   9.2592024894633E-16
(PID.TID 0000.0001) %MON surfExpan_salt_mean          =   0.0000000000000E+00
(PID.TID 0000.0001) %MON surfExpan_Heat_mean          =   1.8179342716079E-13
(PID.TID 0000.0001) %MON En_Budget_T2PE_mean          =   0.0000000000000E+00
(PID.TID 0000.0001) // =======================================================
(PID.TID 0000.0001) // End MONITOR dynamic field statistics
(PID.TID 0000.0001) // =======================================================
(PID.TID 0000.0001) %CHECKPOINT        24 ckptA
(PID.TID 0000.0001)   Seconds in section "ALL                    [THE_MODEL_MAIN]":
(PID.TID 0000.0001)           User time:  1.44000006
(PID.TID 0000.0001)         System time:  0.00999999978
(PID.TID 0000.0001)     Wall clock time:  2.61244297
(PID.TID 0000.0001)          No. starts: 1
(PID.TID 0000.0001)           No. stops: 1
(PID.TID 0000.0001)   Seconds in section "INITIALISE_FIXED       [THE_MODEL_MAIN]":
(PID.TID 0000.0001)           User time:  0.109999999
(PID.TID 0000.0001)         System time:  0.
(PID.TID 0000.0001)     Wall clock time:  0.167158008
(PID.TID 0000.0001)          No. starts: 1
(PID.TID 0000.0001)           No. stops: 1
(PID.TID 0000.0001)   Seconds in section "THE_MAIN_LOOP          [THE_MODEL_MAIN]":
(PID.TID 0000.0001)           User time:  1.30999996
(PID.TID 0000.0001)         System time:  0.00999999978
(PID.TID 0000.0001)     Wall clock time:  2.42685807
(PID.TID 0000.0001)          No. starts: 1
(PID.TID 0000.0001)           No. stops: 1
(PID.TID 0000.0001)   Seconds in section "INITIALISE_VARIA    [THE_MAIN_LOOP]":
(PID.TID 0000.0001)           User time:  0.
(PID.TID 0000.0001)         System time:  0.00999999978
(PID.TID 0000.0001)     Wall clock time:  0.013906002
(PID.TID 0000.0001)          No. starts: 1
(PID.TID 0000.0001)           No. stops: 1
(PID.TID 0000.0001)   Seconds in section "WRITE_STATE         [THE_MAIN_LOOP]":
(PID.TID 0000.0001)           User time:  0.00999999791
(PID.TID 0000.0001)         System time:  0.
(PID.TID 0000.0001)     Wall clock time:  0.767621994
(PID.TID 0000.0001)          No. starts: 1
(PID.TID 0000.0001)           No. stops: 1
(PID.TID 0000.0001)   Seconds in section "MONITOR             [THE_MAIN_LOOP]":
(PID.TID 0000.0001)           User time:  0.0200000033
(PID.TID 0000.0001)         System time:  0.
(PID.TID 0000.0001)     Wall clock time:  0.0224119425
(PID.TID 0000.0001)          No. starts: 1
(PID.TID 0000.0001)           No. stops: 1
(PID.TID 0000.0001)   Seconds in section "MAIN LOOP           [THE_MAIN_LOOP]":
(PID.TID 0000.0001)           User time:  1.27999996
(PID.TID 0000.0001)         System time:  0.
(PID.TID 0000.0001)     Wall clock time:  1.62281001
(PID.TID 0000.0001)          No. starts: 1
(PID.TID 0000.0001)           No. stops: 1
(PID.TID 0000.0001)   Seconds in section "FORWARD_STEP        [THE_MAIN_LOOP]":
(PID.TID 0000.0001)           User time:  1.27999996
(PID.TID 0000.0001)         System time:  0.
(PID.TID 0000.0001)     Wall clock time:  1.62227488
(PID.TID 0000.0001)          No. starts: 24
(PID.TID 0000.0001)           No. stops: 24
(PID.TID 0000.0001)   Seconds in section "EXTERNAL_FIELDS_LOAD[FORWARD_STEP]":
(PID.TID 0000.0001)           User time:  0.0100000203
(PID.TID 0000.0001)         System time:  0.
(PID.TID 0000.0001)     Wall clock time:  0.000486850739
(PID.TID 0000.0001)          No. starts: 24
(PID.TID 0000.0001)           No. stops: 24
(PID.TID 0000.0001)   Seconds in section "THERMODYNAMICS      [FORWARD_STEP]":
(PID.TID 0000.0001)           User time:  0.0699999332
(PID.TID 0000.0001)         System time:  0.
(PID.TID 0000.0001)     Wall clock time:  0.0918166637
(PID.TID 0000.0001)          No. starts: 24
(PID.TID 0000.0001)           No. stops: 24
(PID.TID 0000.0001)   Seconds in section "BLOCKING_EXCHANGES  [FORWARD_STEP]":
(PID.TID 0000.0001)           User time:  0.0100000501
(PID.TID 0000.0001)         System time:  0.
(PID.TID 0000.0001)     Wall clock time:  0.00306153297
(PID.TID 0000.0001)          No. starts: 48
(PID.TID 0000.0001)           No. stops: 48
(PID.TID 0000.0001)   Seconds in section "DYNAMICS            [FORWARD_STEP]":
(PID.TID 0000.0001)           User time:  0.209999934
(PID.TID 0000.0001)         System time:  0.
(PID.TID 0000.0001)     Wall clock time:  0.206031084
(PID.TID 0000.0001)          No. starts: 24
(PID.TID 0000.0001)           No. stops: 24
(PID.TID 0000.0001)   Seconds in section "SOLVE_FOR_PRESSURE  [FORWARD_STEP]":
(PID.TID 0000.0001)           User time:  0.459999949
(PID.TID 0000.0001)         System time:  0.
(PID.TID 0000.0001)     Wall clock time:  0.443781257
(PID.TID 0000.0001)          No. starts: 24
(PID.TID 0000.0001)           No. stops: 24
(PID.TID 0000.0001)   Seconds in section "THE_CORRECTION_STEP [FORWARD_STEP]":
(PID.TID 0000.0001)           User time:  0.
(PID.TID 0000.0001)         System time:  0.
(PID.TID 0000.0001)     Wall clock time:  0.0223429203
(PID.TID 0000.0001)          No. starts: 24
(PID.TID 0000.0001)           No. stops: 24
(PID.TID 0000.0001)   Seconds in section "MONITOR             [FORWARD_STEP]":
(PID.TID 0000.0001)           User time:  0.490000099
(PID.TID 0000.0001)         System time:  0.
(PID.TID 0000.0001)     Wall clock time:  0.483666301
(PID.TID 0000.0001)          No. starts: 24
(PID.TID 0000.0001)           No. stops: 24
(PID.TID 0000.0001)   Seconds in section "DO_THE_MODEL_IO     [FORWARD_STEP]":
(PID.TID 0000.0001)           User time:  0.0299999714
(PID.TID 0000.0001)         System time:  0.
(PID.TID 0000.0001)     Wall clock time:  0.365165353
(PID.TID 0000.0001)          No. starts: 24
(PID.TID 0000.0001)           No. stops: 24
(PID.TID 0000.0001)   Seconds in section "WRITE_CHECKPOINT    [FORWARD_STEP]":
(PID.TID 0000.0001)           User time:  0.
(PID.TID 0000.0001)         System time:  0.
(PID.TID 0000.0001)     Wall clock time:  0.000485181808
(PID.TID 0000.0001)          No. starts: 24
(PID.TID 0000.0001)           No. stops: 24
(PID.TID 0000.0001)   Seconds in section "WRITE_CHECKPOINT       [THE_MODEL_MAIN]":
(PID.TID 0000.0001)           User time:  0.0200001001
(PID.TID 0000.0001)         System time:  0.
(PID.TID 0000.0001)     Wall clock time:  0.0183290243
(PID.TID 0000.0001)          No. starts: 1
(PID.TID 0000.0001)           No. stops: 1
(PID.TID 0000.0001) // ======================================================
(PID.TID 0000.0001) // Tile <-> Tile communication statistics
(PID.TID 0000.0001) // ======================================================
(PID.TID 0000.0001) // o Tile number: 000001
(PID.TID 0000.0001) //         No. X exchanges =              0
(PID.TID 0000.0001) //            Max. X spins =              0
(PID.TID 0000.0001) //            Min. X spins =     1000000000
(PID.TID 0000.0001) //          Total. X spins =              0
(PID.TID 0000.0001) //            Avg. X spins =       0.00E+00
(PID.TID 0000.0001) //         No. Y exchanges =              0
(PID.TID 0000.0001) //            Max. Y spins =              0
(PID.TID 0000.0001) //            Min. Y spins =     1000000000
(PID.TID 0000.0001) //          Total. Y spins =              0
(PID.TID 0000.0001) //            Avg. Y spins =       0.00E+00
(PID.TID 0000.0001) // o Thread number: 000001
(PID.TID 0000.0001) //            No. barriers =          15988
(PID.TID 0000.0001) //      Max. barrier spins =              1
(PID.TID 0000.0001) //      Min. barrier spins =              1
(PID.TID 0000.0001) //     Total barrier spins =          15988
(PID.TID 0000.0001) //      Avg. barrier spins =       1.00E+00
